pglib_opf_case2868_rte.m
%%%%%%%%%%%%%%%%%%%%%%%%%%%%%%%%%%%%%%%%%%%%%%%%%%%%%%%%%%%%%%%%%%%%%%%%%%%
%%%%                                                                  %%%%%
%%%%    IEEE PES Power Grid Library - Optimal Power Flow - v18.08     %%%%%
%%%%          (https://github.com/power-grid-lib/pglib-opf)           %%%%%
%%%%               Benchmark Group - Typical Operations               %%%%%
%%%%                         31 - July - 2018                         %%%%%
%%%%                                                                  %%%%%
%%%%%%%%%%%%%%%%%%%%%%%%%%%%%%%%%%%%%%%%%%%%%%%%%%%%%%%%%%%%%%%%%%%%%%%%%%%
%
%CASE2868RTE
%   AC Power flow data for French system.
%   Please see CASEFORMAT for details on the case file format.
%
%   This case accurately represents the size and complexity of French
%   very high voltage transmission network.
%   Part of this data was sampled in the offline platform of iTesla.
%   These data can be used to validate mathematical methods and tools.
%   These data should NOT be used for operation
%   nor planning of the French or European grids.
%
%   When publishing results using this data, please cite:
%     C. Josz, S. Fliscounakis, J. Maeght, and P. Panciatici,
%     "AC Power Flow Data in MATPOWER and QCQP Format: iTesla, RTE Snapshots, and PEGASE"
%     http://arxiv.org/abs/1603.01533
%
%   Contacts (primary contact for this file : Jean Maeght):
%   Cédric Josz, Stéphane Fliscounakis, Jean Maeght, Patrick Panciatici
%   firstname.lastname@rte-france.com
%   Réseau de Transport d'Electricité (French Transmission System Operator)
%   Département Expertise Système, Immeuble "Le Colbert"
%   9 rue de la Porte de Buc, 78000 Versailles Cedex, France
%   March 4th, 2016
%
%   Copyright (c) 2016 by Cédric Josz, Stéphane Fliscounakis, Jean Maeght,
%   and Patrick Panciatici
%   Licensed under the Creative Commons Attribution 4.0 International license,
%   http://creativecommons.org/licenses/by/4.0/
%
function mpc = pglib_opf_case2868_rte
mpc.version = '2';
mpc.baseMVA = 100.0;

%% bus data
%	bus_i	type	Pd	Qd	Gs	Bs	area	Vm	Va	baseKV	zone	Vmax	Vmin
mpc.bus = [
	1	 1	 -18.5	 0.0	 0.0	 0.0	 1	    1.00000	    0.00000	 63.0	 1	    1.06349	    0.93651;
	2	 1	 11.8	 0.6	 0.0	 0.0	 1	    0.98889	    0.00000	 225.0	 1	    1.08889	    0.88889;
	3	 1	 0.0	 0.0	 0.0	 0.0	 1	    1.05131	    0.00000	 380.0	 1	    1.10263	    1.00000;
	4	 1	 0.0	 0.0	 0.0	 0.0	 1	    1.00000	    0.00000	 63.0	 1	    1.07937	    0.92063;
	5	 1	 0.2	 -0.2	 0.0	 0.0	 1	    0.94444	    0.00000	 45.0	 1	    1.00000	    0.88889;
	6	 1	 5.6	 -19.0	 0.0	 0.0	 1	    0.94444	    0.00000	 45.0	 1	    1.00000	    0.88889;
	7	 1	 223.6	 7.6	 0.0	 0.0	 1	    1.04222	    0.00000	 225.0	 1	    1.08444	    1.00000;
	8	 1	 68.6	 7.6	 0.0	 0.0	 1	    1.01587	    0.00000	 63.0	 1	    1.06349	    0.96825;
	10	 1	 0.0	 0.0	 0.0	 0.0	 1	    1.00334	    0.00000	 150.0	 1	    1.10667	    0.90000;
	11	 1	 49.1	 0.9	 0.0	 0.0	 1	    1.01111	    0.00000	 225.0	 1	    1.08889	    0.93333;
	2571	 1	 34.0	 14.4	 0.0	 0.0	 1	    1.01111	    0.00000	 225.0	 1	    1.08889	    0.93333;
	12	 1	 0.0	 0.0	 0.0	 0.0	 1	    1.05263	    0.00000	 380.0	 1	    1.10526	    1.00000;
	2572	 1	 0.0	 0.0	 0.0	 0.0	 1	    1.05263	    0.00000	 380.0	 1	    1.10526	    1.00000;
	13	 1	 0.0	 0.0	 0.0	 0.0	 1	    1.04534	    0.00000	 225.0	 1	    1.09067	    1.00000;
	14	 1	 0.2	 -1.1	 0.0	 0.0	 1	    1.00000	    0.00000	 63.0	 1	    1.06349	    0.93651;
	15	 1	 10.3	 -0.2	 0.0	 0.0	 1	    1.00000	    0.00000	 63.0	 1	    1.06349	    0.93651;
	16	 1	 189.8	 54.4	 0.0	 0.0	 1	    1.01111	    0.00000	 225.0	 1	    1.08889	    0.93333;
	17	 1	 54.5	 13.1	 0.0	 0.0	 1	    1.04445	    0.00000	 225.0	 1	    1.08889	    1.00000;
	18	 1	 67.6	 23.2	 0.0	 0.0	 1	    1.04481	    0.00000	 225.0	 1	    1.08962	    1.00000;
	19	 2	 0.0	 0.0	 0.0	 0.0	 1	    1.00362	    0.00000	 63.0	 1	    1.08661	    0.92063;
	20	 1	 150.5	 40.0	 0.0	 0.0	 1	    1.04445	    0.00000	 225.0	 1	    1.08889	    1.00000;
	21	 1	 78.1	 6.2	 0.0	 0.0	 1	    0.98889	    0.00000	 225.0	 1	    1.08889	    0.88889;
	22	 1	 15.0	 -9.4	 0.0	 0.0	 1	    1.00450	    0.00000	 63.0	 1	    1.07249	    0.93651;
	23	 1	 50.9	 6.0	 0.0	 0.0	 1	    1.00000	    0.00000	 63.0	 1	    1.06349	    0.93651;
	24	 1	 0.0	 0.0	 0.0	 0.0	 1	    1.04445	    0.00000	 225.0	 1	    1.08889	    1.00000;
	2573	 1	 0.0	 0.0	 0.0	 0.0	 1	    1.04445	    0.00000	 225.0	 1	    1.08889	    1.00000;
	25	 1	 65.1	 1.6	 0.0	 0.0	 1	    0.98889	    0.00000	 225.0	 1	    1.08889	    0.88889;
	26	 1	 1.6	 -4.2	 0.0	 0.0	 1	    1.04158	    0.00000	 225.0	 1	    1.09649	    0.98667;
	27	 1	 42.8	 2.3	 0.0	 0.0	 1	    1.00000	    0.00000	 63.0	 1	    1.06349	    0.93651;
	28	 1	 39.4	 15.5	 0.0	 0.0	 1	    1.04445	    0.00000	 225.0	 1	    1.08889	    1.00000;
	2574	 1	 42.2	 12.4	 0.0	 0.0	 1	    1.04445	    0.00000	 225.0	 1	    1.08889	    1.00000;
	29	 1	 11.4	 0.5	 0.0	 0.0	 1	    1.00000	    0.00000	 63.0	 1	    1.06349	    0.93651;
	30	 1	 72.7	 36.5	 0.0	 0.0	 1	    1.04445	    0.00000	 225.0	 1	    1.08889	    1.00000;
	31	 1	 2.7	 -1.4	 0.0	 0.0	 1	    1.00431	    0.00000	 63.0	 1	    1.07211	    0.93651;
	32	 1	 13.8	 -0.4	 0.0	 0.0	 1	    1.00000	    0.00000	 63.0	 1	    1.06349	    0.93651;
	33	 1	 2.0	 -0.5	 0.0	 0.0	 1	    0.94444	    0.00000	 45.0	 1	    1.00000	    0.88889;
	34	 1	 0.4	 0.0	 0.0	 0.0	 1	    0.94444	    0.00000	 45.0	 1	    1.00000	    0.88889;
	35	 1	 30.4	 3.0	 0.0	 0.0	 1	    1.01587	    0.00000	 63.0	 1	    1.06349	    0.96825;
	36	 1	 1.9	 -3.1	 0.0	 0.0	 1	    0.94444	    0.00000	 45.0	 1	    1.00000	    0.88889;
	37	 1	 18.9	 0.9	 0.0	 0.0	 1	    1.00000	    0.00000	 63.0	 1	    1.06349	    0.93651;
	38	 2	 0.0	 0.0	 0.0	 0.0	 1	    1.01588	    0.00000	 63.0	 1	    1.07937	    0.95238;
	39	 1	 99.3	 18.8	 0.0	 0.0	 1	    1.03800	    0.00000	 225.0	 1	    1.08934	    0.98667;
	40	 1	 38.7	 0.9	 0.0	 0.0	 1	    0.98889	    0.00000	 225.0	 1	    1.08889	    0.88889;
	41	 1	 89.8	 13.0	 0.0	 0.0	 1	    1.04222	    0.00000	 225.0	 1	    1.08444	    1.00000;
	42	 1	 63.9	 9.7	 0.0	 0.0	 1	    1.00010	    0.00000	 63.0	 1	    1.06370	    0.93651;
	43	 1	 0.0	 0.0	 0.0	 0.0	 1	    1.01111	    0.00000	 225.0	 1	    1.08889	    0.93333;
	44	 1	 33.1	 -6.5	 0.0	 0.0	 1	    1.01587	    0.00000	 63.0	 1	    1.06349	    0.96825;
	45	 1	 168.4	 34.9	 0.0	 0.0	 1	    1.04445	    0.00000	 225.0	 1	    1.08889	    1.00000;
	46	 1	 0.0	 0.0	 0.0	 0.0	 1	    1.05263	    0.00000	 380.0	 1	    1.10526	    1.00000;
	2575	 1	 0.0	 0.0	 0.0	 0.0	 1	    1.05263	    0.00000	 380.0	 1	    1.10526	    1.00000;
	47	 1	 29.5	 4.5	 0.0	 0.0	 1	    1.00128	    0.00000	 63.0	 1	    1.06606	    0.93651;
	48	 1	 1.6	 0.0	 0.0	 0.0	 1	    1.00193	    0.00000	 63.0	 1	    1.06735	    0.93651;
	49	 1	 14.9	 10.4	 0.0	 0.0	 1	    1.01587	    0.00000	 63.0	 1	    1.06349	    0.96825;
	2576	 1	 9.9	 7.2	 0.0	 0.0	 1	    1.01587	    0.00000	 63.0	 1	    1.06349	    0.96825;
	50	 1	 0.0	 0.0	 0.0	 0.0	 1	    1.04222	    0.00000	 225.0	 1	    1.08444	    1.00000;
	51	 1	 114.9	 20.2	 0.0	 0.0	 1	    1.04222	    0.00000	 225.0	 1	    1.08444	    1.00000;
	52	 1	 0.0	 0.0	 0.0	 0.0	 1	    1.04445	    0.00000	 225.0	 1	    1.08889	    1.00000;
	2942	 1	 106.0	 29.6	 0.0	 0.0	 1	    1.04445	    0.00000	 225.0	 1	    1.08889	    1.00000;
	53	 2	 5.7	 -6.6	 0.0	 0.0	 1	    1.01587	    0.00000	 63.0	 1	    1.06349	    0.96825;
	54	 1	 0.0	 0.0	 0.0	 0.0	 1	    1.02333	    0.00000	 150.0	 1	    1.08000	    0.96667;
	55	 1	 65.6	 18.0	 0.0	 80.0	 1	    1.04730	    0.00000	 225.0	 1	    1.09459	    1.00000;
	56	 1	 0.0	 0.0	 0.0	 0.0	 1	    1.05263	    0.00000	 380.0	 1	    1.10526	    1.00000;
	57	 1	 146.4	 39.1	 0.0	 0.0	 1	    1.03778	    0.00000	 225.0	 1	    1.08889	    0.98667;
	59	 1	 78.7	 21.1	 0.0	 0.0	 1	    1.02889	    0.00000	 225.0	 1	    1.08889	    0.96889;
	60	 1	 125.2	 37.6	 0.0	 0.0	 1	    1.05263	    0.00000	 380.0	 1	    1.10526	    1.00000;
	61	 1	 6.0	 1.0	 0.0	 0.0	 1	    1.00000	    0.00000	 63.0	 1	    1.06349	    0.93651;
	63	 1	 36.1	 4.7	 0.0	 7.7	 1	    1.01587	    0.00000	 63.0	 1	    1.06349	    0.96825;
	2577	 1	 0.0	 0.0	 0.0	 0.0	 1	    1.01587	    0.00000	 63.0	 1	    1.06349	    0.96825;
	64	 1	 53.3	 13.4	 0.0	 0.0	 1	    1.01111	    0.00000	 225.0	 1	    1.08889	    0.93333;
	65	 1	 0.0	 0.0	 0.0	 0.0	 1	    1.01587	    0.00000	 63.0	 1	    1.06349	    0.96825;
	66	 1	 43.4	 -0.7	 0.0	 0.0	 1	    0.94444	    0.00000	 45.0	 1	    1.00000	    0.88889;
	2578	 2	 0.0	 0.0	 0.0	 0.0	 1	    0.94444	    0.00000	 45.0	 1	    1.00000	    0.88889;
	67	 1	 41.3	 12.8	 0.0	 0.0	 1	    0.98889	    0.00000	 225.0	 1	    1.08889	    0.88889;
	2579	 1	 38.5	 8.5	 0.0	 0.0	 1	    0.98889	    0.00000	 225.0	 1	    1.08889	    0.88889;
	68	 1	 19.6	 3.7	 0.0	 0.0	 1	    1.00000	    0.00000	 20.0	 1	    1.20000	    0.80000;
	69	 1	 320.7	 74.9	 0.0	 0.0	 1	    1.04343	    0.00000	 225.0	 1	    1.08685	    1.00000;
	70	 1	 140.9	 -22.3	 0.0	 0.0	 1	    1.04445	    0.00000	 225.0	 1	    1.08889	    1.00000;
	71	 2	 0.0	 0.0	 0.0	 0.0	 1	    1.00442	    0.00000	 150.0	 1	    1.10885	    0.90000;
	72	 1	 0.0	 0.0	 0.0	 0.0	 1	    1.04445	    0.00000	 225.0	 1	    1.08889	    1.00000;
	2580	 1	 0.0	 0.0	 0.0	 0.0	 1	    1.04445	    0.00000	 225.0	 1	    1.08889	    1.00000;
	74	 1	 0.0	 0.0	 0.0	 0.0	 1	    1.04445	    0.00000	 225.0	 1	    1.08889	    1.00000;
	75	 1	 15.6	 3.0	 0.0	 0.0	 1	    1.00000	    0.00000	 63.0	 1	    1.06349	    0.93651;
	76	 2	 0.0	 0.0	 0.0	 0.0	 1	    0.94444	    0.00000	 45.0	 1	    1.00000	    0.88889;
	77	 1	 6.4	 0.3	 0.0	 0.0	 1	    1.00272	    0.00000	 63.0	 1	    1.08481	    0.92063;
	78	 1	 4.8	 2.4	 0.0	 0.0	 1	    1.04445	    0.00000	 225.0	 1	    1.08889	    1.00000;
	79	 1	 17.4	 1.7	 0.0	 15.0	 1	    1.00000	    0.00000	 63.0	 1	    1.07937	    0.92063;
	80	 1	 10.0	 -0.6	 0.0	 0.0	 1	    1.00404	    0.00000	 63.0	 1	    1.08744	    0.92063;
	81	 1	 0.0	 0.0	 0.0	 0.0	 1	    1.04445	    0.00000	 225.0	 1	    1.08889	    1.00000;
	82	 1	 63.1	 25.3	 0.0	 0.0	 1	    0.98889	    0.00000	 225.0	 1	    1.08889	    0.88889;
	83	 1	 44.1	 1.9	 0.0	 0.0	 1	    1.01544	    0.00000	 63.0	 1	    1.06349	    0.96740;
	84	 1	 162.3	 51.1	 0.0	 0.0	 1	    1.02889	    0.00000	 225.0	 1	    1.08889	    0.96889;
	85	 1	 0.0	 0.0	 0.0	 0.0	 1	    1.05263	    0.00000	 380.0	 1	    1.10526	    1.00000;
	86	 1	 58.3	 14.1	 0.0	 0.0	 1	    1.01587	    0.00000	 63.0	 1	    1.06349	    0.96825;
	87	 1	 32.5	 4.6	 0.0	 0.0	 1	    1.01587	    0.00000	 63.0	 1	    1.06349	    0.96825;
	88	 1	 1.5	 0.7	 0.0	 0.0	 1	    1.01587	    0.00000	 63.0	 1	    1.06349	    0.96825;
	89	 1	 55.7	 8.3	 0.0	 0.0	 1	    1.01587	    0.00000	 63.0	 1	    1.06349	    0.96825;
	2581	 1	 30.1	 12.2	 0.0	 0.0	 1	    1.01587	    0.00000	 63.0	 1	    1.06349	    0.96825;
	90	 1	 0.0	 0.0	 0.0	 0.0	 1	    1.04222	    0.00000	 225.0	 1	    1.08444	    1.00000;
	2582	 1	 0.0	 0.0	 0.0	 0.0	 1	    1.04222	    0.00000	 225.0	 1	    1.08444	    1.00000;
	91	 1	 190.1	 8.0	 0.0	 0.0	 1	    1.04445	    0.00000	 225.0	 1	    1.08889	    1.00000;
	92	 1	 36.8	 -8.5	 0.0	 0.0	 1	    1.01187	    0.00000	 225.0	 1	    1.09041	    0.93333;
	93	 2	 0.0	 0.0	 0.0	 0.0	 1	    1.00453	    0.00000	 150.0	 1	    1.10907	    0.90000;
	94	 1	 35.7	 55.7	 0.0	 0.0	 1	    1.04222	    0.00000	 225.0	 1	    1.08444	    1.00000;
	2583	 1	 34.0	 3.2	 0.0	 0.0	 1	    1.04222	    0.00000	 225.0	 1	    1.08444	    1.00000;
	95	 1	 0.0	 0.0	 0.0	 0.0	 1	    1.03333	    0.00000	 225.0	 1	    1.08889	    0.97778;
	96	 1	 15.9	 4.1	 0.0	 0.0	 1	    0.98889	    0.00000	 225.0	 1	    1.08889	    0.88889;
	97	 1	 40.4	 6.5	 0.0	 0.0	 1	    1.01587	    0.00000	 63.0	 1	    1.06349	    0.96825;
	98	 1	 -3.5	 -1.6	 0.0	 0.0	 1	    1.01111	    0.00000	 225.0	 1	    1.08889	    0.93333;
	99	 1	 18.2	 5.5	 0.0	 0.0	 1	    1.04445	    0.00000	 225.0	 1	    1.08889	    1.00000;
	2584	 1	 33.2	 14.1	 0.0	 0.0	 1	    1.04445	    0.00000	 225.0	 1	    1.08889	    1.00000;
	100	 1	 -17.2	 -4.3	 0.0	 0.0	 1	    1.04445	    0.00000	 225.0	 1	    1.08889	    1.00000;
	101	 1	 24.4	 1.9	 0.0	 0.0	 1	    1.03778	    0.00000	 225.0	 1	    1.08889	    0.98667;
	102	 1	 0.0	 0.0	 0.0	 80.0	 1	    0.98889	    0.00000	 225.0	 1	    1.08889	    0.88889;
	2585	 1	 0.0	 0.0	 0.0	 0.0	 1	    0.98889	    0.00000	 225.0	 1	    1.08889	    0.88889;
	103	 1	 0.0	 0.0	 0.0	 0.0	 1	    1.05263	    0.00000	 380.0	 1	    1.10526	    1.00000;
	104	 1	 74.9	 14.3	 0.0	 0.0	 1	    1.04445	    0.00000	 225.0	 1	    1.08889	    1.00000;
	2586	 1	 29.0	 6.8	 0.0	 0.0	 1	    1.04445	    0.00000	 225.0	 1	    1.08889	    1.00000;
	105	 1	 11.4	 9.2	 0.0	 0.0	 1	    1.00000	    0.00000	 63.0	 1	    1.07937	    0.92063;
	106	 1	 0.0	 0.0	 0.0	 0.0	 1	    1.03333	    0.00000	 225.0	 1	    1.08889	    0.97778;
	2587	 1	 0.0	 0.0	 0.0	 0.0	 1	    1.03333	    0.00000	 225.0	 1	    1.08889	    0.97778;
	107	 1	 5.7	 10.3	 0.0	 0.0	 1	    1.01587	    0.00000	 63.0	 1	    1.06349	    0.96825;
	108	 1	 54.1	 1.9	 0.0	 0.0	 1	    1.04222	    0.00000	 225.0	 1	    1.08444	    1.00000;
	109	 1	 0.0	 0.0	 0.0	 0.0	 1	    1.04222	    0.00000	 225.0	 1	    1.08444	    1.00000;
	110	 1	 0.0	 0.0	 0.0	 0.0	 1	    1.05131	    0.00000	 380.0	 1	    1.10263	    1.00000;
	111	 1	 103.3	 18.0	 0.0	 0.0	 1	    1.04222	    0.00000	 225.0	 1	    1.08444	    1.00000;
	112	 1	 -1.5	 2.2	 0.0	 0.0	 1	    1.04517	    0.00000	 225.0	 1	    1.09035	    1.00000;
	2588	 1	 16.5	 -0.1	 0.0	 0.0	 1	    1.04517	    0.00000	 225.0	 1	    1.09035	    1.00000;
	113	 1	 47.0	 9.8	 0.0	 0.0	 1	    0.98889	    0.00000	 225.0	 1	    1.08889	    0.88889;
	114	 1	 43.8	 0.6	 0.0	 0.0	 1	    1.00000	    0.00000	 63.0	 1	    1.06349	    0.93651;
	115	 1	 16.4	 1.2	 0.0	 0.0	 1	    0.98889	    0.00000	 225.0	 1	    1.08889	    0.88889;
	116	 1	 56.9	 18.9	 0.0	 0.0	 1	    0.98889	    0.00000	 225.0	 1	    1.08889	    0.88889;
	117	 1	 3.2	 0.4	 0.0	 0.0	 1	    1.01587	    0.00000	 63.0	 1	    1.06349	    0.96825;
	118	 1	 44.0	 10.0	 0.0	 0.0	 1	    1.00000	    0.00000	 63.0	 1	    1.07937	    0.92063;
	119	 1	 28.5	 -5.1	 0.0	 0.0	 1	    1.01587	    0.00000	 63.0	 1	    1.06349	    0.96825;
	120	 2	 0.0	 0.0	 0.0	 0.0	 1	    1.00257	    0.00000	 63.0	 1	    1.06863	    0.93651;
	121	 1	 8.5	 3.1	 0.0	 0.0	 1	    1.01587	    0.00000	 63.0	 1	    1.06349	    0.96825;
	2589	 1	 15.0	 6.8	 0.0	 0.0	 1	    1.01587	    0.00000	 63.0	 1	    1.06349	    0.96825;
	122	 1	 142.7	 -26.6	 0.0	 0.0	 1	    1.04445	    0.00000	 225.0	 1	    1.08889	    1.00000;
	123	 1	 32.4	 7.9	 0.0	 0.0	 1	    1.00000	    0.00000	 63.0	 1	    1.07937	    0.92063;
	124	 2	 4.7	 -2.0	 0.0	 0.0	 1	    1.00133	    0.00000	 63.0	 1	    1.08203	    0.92063;
	125	 1	 0.0	 0.0	 0.0	 0.0	 1	    1.00000	    0.00000	 63.0	 1	    1.07937	    0.92063;
	126	 1	 0.0	 0.0	 0.0	 0.0	 1	    1.04445	    0.00000	 225.0	 1	    1.08889	    1.00000;
	127	 1	 0.0	 0.0	 0.0	 0.0	 1	    1.05263	    0.00000	 380.0	 1	    1.10526	    1.00000;
	128	 1	 26.4	 3.8	 0.0	 0.0	 1	    1.00000	    0.00000	 63.0	 1	    1.06349	    0.93651;
	129	 2	 16.3	 7.5	 0.0	 0.0	 1	    1.00000	    0.00000	 63.0	 1	    1.06349	    0.93651;
	130	 1	 10.9	 16.3	 0.0	 0.0	 1	    1.00000	    0.00000	 63.0	 1	    1.07937	    0.92063;
	2955	 1	 0.0	 0.0	 0.0	 0.0	 1	    1.00000	    0.00000	 63.0	 1	    1.07937	    0.92063;
	131	 1	 0.0	 0.0	 0.0	 0.0	 1	    1.04445	    0.00000	 225.0	 1	    1.08889	    1.00000;
	132	 1	 139.1	 40.0	 0.0	 0.0	 1	    1.04445	    0.00000	 225.0	 1	    1.08889	    1.00000;
	133	 2	 9.2	 3.6	 0.0	 0.0	 1	    1.01682	    0.00000	 63.0	 1	    1.06538	    0.96825;
	134	 2	 0.0	 0.0	 0.0	 0.0	 1	    1.02333	    0.00000	 150.0	 1	    1.08000	    0.96667;
	135	 2	 -14.9	 -4.8	 0.0	 0.0	 1	    1.00000	    0.00000	 63.0	 1	    1.07937	    0.92063;
	136	 1	 31.7	 10.2	 0.0	 0.0	 1	    1.03778	    0.00000	 225.0	 1	    1.08889	    0.98667;
	137	 1	 9.7	 -2.1	 0.0	 0.0	 1	    1.01587	    0.00000	 63.0	 1	    1.06349	    0.96825;
	138	 1	 12.8	 5.8	 0.0	 0.0	 1	    1.04222	    0.00000	 225.0	 1	    1.08444	    1.00000;
	140	 1	 0.0	 0.0	 0.0	 0.0	 1	    1.05263	    0.00000	 380.0	 1	    1.10526	    1.00000;
	2590	 1	 0.0	 0.0	 0.0	 0.0	 1	    1.05263	    0.00000	 380.0	 1	    1.10526	    1.00000;
	141	 1	 20.8	 1.1	 0.0	 0.0	 1	    1.04445	    0.00000	 225.0	 1	    1.08889	    1.00000;
	142	 1	 10.3	 9.6	 0.0	 0.0	 1	    1.04445	    0.00000	 225.0	 1	    1.08889	    1.00000;
	143	 1	 28.7	 2.3	 0.0	 0.0	 1	    1.01587	    0.00000	 63.0	 1	    1.06349	    0.96825;
	144	 1	 82.9	 11.1	 0.0	 0.0	 1	    1.00000	    0.00000	 150.0	 1	    1.10000	    0.90000;
	145	 1	 72.9	 0.2	 0.0	 0.0	 1	    1.04462	    0.00000	 225.0	 1	    1.08925	    1.00000;
	146	 2	 -3.7	 -0.5	 0.0	 0.0	 1	    1.04445	    0.00000	 225.0	 1	    1.08889	    1.00000;
	147	 1	 0.0	 0.0	 0.0	 0.0	 1	    1.01111	    0.00000	 225.0	 1	    1.08889	    0.93333;
	148	 1	 0.0	 0.0	 0.0	 0.0	 1	    1.05263	    0.00000	 380.0	 1	    1.10526	    1.00000;
	2591	 1	 0.0	 0.0	 0.0	 0.0	 1	    1.05263	    0.00000	 380.0	 1	    1.10526	    1.00000;
	149	 1	 0.0	 0.0	 0.0	 0.0	 1	    1.04445	    0.00000	 225.0	 1	    1.08889	    1.00000;
	2592	 1	 66.1	 19.5	 0.0	 0.0	 1	    1.04445	    0.00000	 225.0	 1	    1.08889	    1.00000;
	150	 1	 0.0	 0.0	 0.0	 0.0	 1	    1.03778	    0.00000	 225.0	 1	    1.08889	    0.98667;
	151	 1	 24.0	 9.7	 0.0	 0.0	 1	    1.04445	    0.00000	 225.0	 1	    1.08889	    1.00000;
	153	 1	 137.1	 23.1	 0.0	 0.0	 1	    1.01111	    0.00000	 225.0	 1	    1.08889	    0.93333;
	154	 1	 0.0	 0.0	 0.0	 0.0	 1	    1.05263	    0.00000	 380.0	 1	    1.10526	    1.00000;
	155	 1	 55.3	 18.4	 0.0	 0.0	 1	    1.04445	    0.00000	 225.0	 1	    1.08889	    1.00000;
	156	 1	 30.9	 4.2	 0.0	 0.0	 1	    1.00077	    0.00000	 63.0	 1	    1.06503	    0.93651;
	157	 1	 2.4	 0.4	 0.0	 0.0	 1	    1.01587	    0.00000	 63.0	 1	    1.06349	    0.96825;
	158	 1	 27.5	 2.2	 0.0	 0.0	 1	    1.00000	    0.00000	 63.0	 1	    1.07937	    0.92063;
	159	 1	 24.3	 1.9	 0.0	 0.0	 1	    1.01587	    0.00000	 63.0	 1	    1.06349	    0.96825;
	160	 1	 5.6	 3.0	 0.0	 0.0	 1	    1.00000	    0.00000	 63.0	 1	    1.06349	    0.93651;
	161	 2	 0.0	 0.0	 0.0	 0.0	 1	    0.97500	    0.00000	 63.0	 1	    1.15000	    0.80000;
	162	 1	 0.5	 -40.5	 0.0	 0.0	 1	    1.04527	    0.00000	 225.0	 1	    1.09053	    1.00000;
	163	 1	 0.0	 0.0	 0.0	 0.0	 1	    1.01587	    0.00000	 63.0	 1	    1.06349	    0.96825;
	164	 1	 109.3	 -1.7	 0.0	 0.0	 1	    1.04895	    0.00000	 225.0	 1	    1.09791	    1.00000;
	165	 1	 187.3	 17.6	 0.0	 0.0	 1	    1.03778	    0.00000	 225.0	 1	    1.08889	    0.98667;
	166	 1	 51.6	 6.2	 0.0	 0.0	 1	    1.01587	    0.00000	 63.0	 1	    1.06349	    0.96825;
	167	 1	 119.3	 36.7	 0.0	 0.0	 1	    1.04534	    0.00000	 225.0	 1	    1.09067	    1.00000;
	168	 1	 14.1	 -5.7	 0.0	 0.0	 1	    1.00000	    0.00000	 63.0	 1	    1.06349	    0.93651;
	169	 1	 24.1	 -4.6	 0.0	 0.0	 1	    1.01587	    0.00000	 63.0	 1	    1.06349	    0.96825;
	170	 1	 1.8	 0.3	 0.0	 0.0	 1	    1.00236	    0.00000	 63.0	 1	    1.06822	    0.93651;
	171	 1	 181.5	 51.4	 0.0	 0.0	 1	    1.00667	    0.00000	 225.0	 1	    1.08889	    0.92444;
	172	 2	 -0.0	 1.2	 0.0	 0.0	 1	    1.01587	    0.00000	 63.0	 1	    1.06349	    0.96825;
	173	 1	 82.5	 15.9	 0.0	 0.0	 1	    1.04141	    0.00000	 225.0	 1	    1.09616	    0.98667;
	174	 1	 0.0	 0.0	 0.0	 0.0	 1	    1.05263	    0.00000	 380.0	 1	    1.10526	    1.00000;
	2998	 1	 0.0	 0.0	 0.0	 0.0	 1	    1.05263	    0.00000	 380.0	 1	    1.10526	    1.00000;
	175	 1	 120.7	 -49.6	 0.0	 0.0	 1	    1.04222	    0.00000	 225.0	 1	    1.08444	    1.00000;
	177	 1	 0.0	 0.0	 0.0	 0.0	 1	    1.01217	    0.00000	 63.0	 1	    1.06349	    0.96086;
	178	 1	 0.0	 0.0	 0.0	 0.0	 1	    1.04222	    0.00000	 225.0	 1	    1.08444	    1.00000;
	179	 1	 0.0	 0.0	 0.0	 0.0	 1	    1.05131	    0.00000	 380.0	 1	    1.10263	    1.00000;
	180	 1	 5.0	 0.6	 0.0	 0.0	 1	    1.01111	    0.00000	 225.0	 1	    1.08889	    0.93333;
	181	 1	 -3.0	 -14.3	 0.0	 0.0	 1	    0.95270	    0.00000	 45.0	 1	    1.01652	    0.88889;
	182	 1	 0.0	 0.0	 0.0	 0.0	 1	    1.00000	    0.00000	 63.0	 1	    1.06349	    0.93651;
...
];

%% generator data
%	bus	Pg	Qg	Qmax	Qmin	Vg	mBase	status	Pmax	Pmin	Pc1	Pc2	Qc1min	Qc1max	Qc2min	Qc2max	ramp_agc	ramp_10	ramp_30	ramp_q	apf
mpc.gen = [
	1279	 21.0	 0.0	 15.0	 -15.0	 1.029	 100.0	 0	 35.0	 7.0	 0.0	 0.0	 0.0	 0.0	 0.0	 0.0	 0.0	 0.0	 0.0	 0.0	 0.0; % PEL
	1210	 21.66	 2.5	 20.0	 -15.0	 1.023	 100.0	 1	 36.1	 7.22	 0.0	 0.0	 0.0	 0.0	 0.0	 0.0	 0.0	 0.0	 0.0	 0.0	 0.0; % PEL
	751	 27.6	 6.0	 21.0	 -9.0	 1.035	 100.0	 1	 46.0	 9.2	 0.0	 0.0	 0.0	 0.0	 0.0	 0.0	 0.0	 0.0	 0.0	 0.0	 0.0; % NG
	2777	 2.0	 0.0	 0.1	 -0.1	 1.102	 100.0	 1	 4.0	 0.0	 0.0	 0.0	 0.0	 0.0	 0.0	 0.0	 0.0	 0.0	 0.0	 0.0	 0.0; % NG
	2777	 4.2	 0.95	 1.0	 0.9	 1.102	 100.0	 1	 7.0	 1.4	 0.0	 0.0	 0.0	 0.0	 0.0	 0.0	 0.0	 0.0	 0.0	 0.0	 0.0; % NG
	978	 7.2	 -1.5	 4.0	 -7.0	 1.113	 100.0	 1	 12.0	 2.4	 0.0	 0.0	 0.0	 0.0	 0.0	 0.0	 0.0	 0.0	 0.0	 0.0	 0.0; % NG
	158	 1.35	 0.0	 0.0	 0.0	 1.024	 100.0	 1	 2.7	 0.0	 0.0	 0.0	 0.0	 0.0	 0.0	 0.0	 0.0	 0.0	 0.0	 0.0	 0.0; % PEL
	1217	 7.8	 0.0	 5.0	 -5.0	 1.017	 100.0	 1	 13.0	 2.6	 0.0	 0.0	 0.0	 0.0	 0.0	 0.0	 0.0	 0.0	 0.0	 0.0	 0.0; % COW
	367	 30.0	 9.0	 27.0	 -9.0	 0.995	 100.0	 1	 50.0	 10.0	 0.0	 0.0	 0.0	 0.0	 0.0	 0.0	 0.0	 0.0	 0.0	 0.0	 0.0; % NG
	1127	 9.6	 0.0	 0.0	 0.0	 1.001	 100.0	 1	 16.0	 3.2	 0.0	 0.0	 0.0	 0.0	 0.0	 0.0	 0.0	 0.0	 0.0	 0.0	 0.0; % PEL
	460	 37.2	 0.0	 40.0	 -40.0	 1.065	 100.0	 0	 62.0	 12.4	 0.0	 0.0	 0.0	 0.0	 0.0	 0.0	 0.0	 0.0	 0.0	 0.0	 0.0; % NG
	968	 10.8	 0.0	 10.0	 -10.0	 1.07	 100.0	 1	 18.0	 3.6	 0.0	 0.0	 0.0	 0.0	 0.0	 0.0	 0.0	 0.0	 0.0	 0.0	 0.0; % PEL
	1827	 13.2	 -2.5	 7.0	 -12.0	 1.065	 100.0	 1	 22.0	 4.4	 0.0	 0.0	 0.0	 0.0	 0.0	 0.0	 0.0	 0.0	 0.0	 0.0	 0.0; % NG
	1466	 20.5	 -5.0	 5.0	 -15.0	 1.05	 100.0	 1	 40.0	 1.0	 0.0	 0.0	 0.0	 0.0	 0.0	 0.0	 0.0	 0.0	 0.0	 0.0	 0.0; % NG
	2863	 20.5	 0.0	 6.0	 -6.0	 0.987	 100.0	 1	 40.0	 1.0	 0.0	 0.0	 0.0	 0.0	 0.0	 0.0	 0.0	 0.0	 0.0	 0.0	 0.0; % NG
	1466	 20.5	 -5.0	 5.0	 -15.0	 1.05	 100.0	 1	 40.0	 1.0	 0.0	 0.0	 0.0	 0.0	 0.0	 0.0	 0.0	 0.0	 0.0	 0.0	 0.0; % NG
	2863	 20.5	 0.0	 6.0	 -6.0	 0.987	 100.0	 1	 40.0	 1.0	 0.0	 0.0	 0.0	 0.0	 0.0	 0.0	 0.0	 0.0	 0.0	 0.0	 0.0; % COW
	1072	 7.2	 0.95	 1.0	 0.9	 1.091	 100.0	 0	 12.0	 2.4	 0.0	 0.0	 0.0	 0.0	 0.0	 0.0	 0.0	 0.0	 0.0	 0.0	 0.0; % NG
	1072	 8.4	 0.95	 1.0	 0.9	 1.091	 100.0	 0	 14.0	 2.8	 0.0	 0.0	 0.0	 0.0	 0.0	 0.0	 0.0	 0.0	 0.0	 0.0	 0.0; % NG
	1072	 7.2	 0.95	 1.0	 0.9	 1.091	 100.0	 0	 12.0	 2.4	 0.0	 0.0	 0.0	 0.0	 0.0	 0.0	 0.0	 0.0	 0.0	 0.0	 0.0; % NG
	642	 6.2	 0.0	 3.0	 -3.0	 1.029	 100.0	 1	 10.33	 2.07	 0.0	 0.0	 0.0	 0.0	 0.0	 0.0	 0.0	 0.0	 0.0	 0.0	 0.0; % NG
	642	 6.2	 0.0	 3.0	 -3.0	 1.029	 100.0	 1	 10.33	 2.07	 0.0	 0.0	 0.0	 0.0	 0.0	 0.0	 0.0	 0.0	 0.0	 0.0	 0.0; % NG
	542	 27.5	 6.0	 22.0	 -10.0	 1.019	 100.0	 1	 50.0	 5.0	 0.0	 0.0	 0.0	 0.0	 0.0	 0.0	 0.0	 0.0	 0.0	 0.0	 0.0; % NG
	773	 7.2	 0.0	 0.0	 0.0	 1.033	 100.0	 1	 12.0	 2.4	 0.0	 0.0	 0.0	 0.0	 0.0	 0.0	 0.0	 0.0	 0.0	 0.0	 0.0; % NG
	399	 8.28	 0.0	 0.0	 0.0	 0.985	 100.0	 1	 13.8	 2.76	 0.0	 0.0	 0.0	 0.0	 0.0	 0.0	 0.0	 0.0	 0.0	 0.0	 0.0; % NG
	399	 0.6	 0.0	 0.0	 0.0	 0.985	 100.0	 1	 1.2	 0.0	 0.0	 0.0	 0.0	 0.0	 0.0	 0.0	 0.0	 0.0	 0.0	 0.0	 0.0; % PEL
	21	 14.4	 0.0	 0.0	 0.0	 1.079	 100.0	 1	 24.0	 4.8	 0.0	 0.0	 0.0	 0.0	 0.0	 0.0	 0.0	 0.0	 0.0	 0.0	 0.0; % NG
	21	 16.56	 0.0	 0.0	 0.0	 1.079	 100.0	 1	 27.6	 5.52	 0.0	 0.0	 0.0	 0.0	 0.0	 0.0	 0.0	 0.0	 0.0	 0.0	 0.0; % PEL
	899	 10.8	 0.0	 0.0	 0.0	 1.044	 100.0	 1	 18.0	 3.6	 0.0	 0.0	 0.0	 0.0	 0.0	 0.0	 0.0	 0.0	 0.0	 0.0	 0.0; % PEL
	899	 12.6	 0.0	 0.0	 0.0	 1.044	 100.0	 1	 21.0	 4.2	 0.0	 0.0	 0.0	 0.0	 0.0	 0.0	 0.0	 0.0	 0.0	 0.0	 0.0; % PEL
	2618	 3.6	 0.0	 0.0	 0.0	 1.032	 100.0	 1	 6.0	 1.2	 0.0	 0.0	 0.0	 0.0	 0.0	 0.0	 0.0	 0.0	 0.0	 0.0	 0.0; % NG
	2618	 22.5	 2.0	 10.0	 -6.0	 1.032	 100.0	 1	 37.5	 7.5	 0.0	 0.0	 0.0	 0.0	 0.0	 0.0	 0.0	 0.0	 0.0	 0.0	 0.0; % PEL
	285	 3.6	 0.0	 0.0	 0.0	 1.032	 100.0	 1	 6.0	 1.2	 0.0	 0.0	 0.0	 0.0	 0.0	 0.0	 0.0	 0.0	 0.0	 0.0	 0.0; % PEL
	285	 22.5	 2.0	 10.0	 -6.0	 1.032	 100.0	 1	 37.5	 7.5	 0.0	 0.0	 0.0	 0.0	 0.0	 0.0	 0.0	 0.0	 0.0	 0.0	 0.0; % PEL
	135	 7.8	 -0.5	 5.0	 -6.0	 1.053	 100.0	 1	 13.0	 2.6	 0.0	 0.0	 0.0	 0.0	 0.0	 0.0	 0.0	 0.0	 0.0	 0.0	 0.0; % NG
	53	 10.8	 0.0	 0.8	 -0.8	 1.038	 100.0	 1	 18.0	 3.6	 0.0	 0.0	 0.0	 0.0	 0.0	 0.0	 0.0	 0.0	 0.0	 0.0	 0.0; % NG
	53	 10.8	 0.0	 0.8	 -0.8	 1.038	 100.0	 1	 18.0	 3.6	 0.0	 0.0	 0.0	 0.0	 0.0	 0.0	 0.0	 0.0	 0.0	 0.0	 0.0; % NG
	596	 2.0	 0.0	 0.0	 0.0	 1.069	 100.0	 1	 4.0	 0.0	 0.0	 0.0	 0.0	 0.0	 0.0	 0.0	 0.0	 0.0	 0.0	 0.0	 0.0; % NG
	958	 2.3	 0.0	 0.0	 0.0	 0.999	 100.0	 1	 4.6	 0.0	 0.0	 0.0	 0.0	 0.0	 0.0	 0.0	 0.0	 0.0	 0.0	 0.0	 0.0; % NG
	1679	 12.6	 1.0	 6.0	 -4.0	 1.048	 100.0	 1	 21.0	 4.2	 0.0	 0.0	 0.0	 0.0	 0.0	 0.0	 0.0	 0.0	 0.0	 0.0	 0.0; % NG
	1679	 12.6	 1.1	 6.7	 -4.5	 1.048	 100.0	 1	 21.0	 4.2	 0.0	 0.0	 0.0	 0.0	 0.0	 0.0	 0.0	 0.0	 0.0	 0.0	 0.0; % NG
	1157	 4.32	 0.0	 0.0	 0.0	 1.012	 100.0	 1	 7.2	 1.44	 0.0	 0.0	 0.0	 0.0	 0.0	 0.0	 0.0	 0.0	 0.0	 0.0	 0.0; % NG
	513	 6.6	 3.0	 5.0	 1.0	 1.008	 100.0	 0	 11.0	 2.2	 0.0	 0.0	 0.0	 0.0	 0.0	 0.0	 0.0	 0.0	 0.0	 0.0	 0.0; % PEL
	513	 6.6	 3.0	 5.0	 1.0	 1.008	 100.0	 0	 11.0	 2.2	 0.0	 0.0	 0.0	 0.0	 0.0	 0.0	 0.0	 0.0	 0.0	 0.0	 0.0; % NG
	371	 4.8	 0.0	 5.0	 -5.0	 1.04	 100.0	 1	 8.0	 1.6	 0.0	 0.0	 0.0	 0.0	 0.0	 0.0	 0.0	 0.0	 0.0	 0.0	 0.0; % PEL
	371	 4.8	 0.0	 5.0	 -5.0	 1.04	 100.0	 1	 8.0	 1.6	 0.0	 0.0	 0.0	 0.0	 0.0	 0.0	 0.0	 0.0	 0.0	 0.0	 0.0; % NG
	976	 21.0	 -1.5	 12.0	 -15.0	 1.008	 100.0	 1	 35.0	 7.0	 0.0	 0.0	 0.0	 0.0	 0.0	 0.0	 0.0	 0.0	 0.0	 0.0	 0.0; % NG
	976	 21.0	 -1.5	 12.0	 -15.0	 1.008	 100.0	 1	 35.0	 7.0	 0.0	 0.0	 0.0	 0.0	 0.0	 0.0	 0.0	 0.0	 0.0	 0.0	 0.0; % PEL
	2754	 6.9	 0.0	 0.0	 0.0	 1.045	 100.0	 1	 11.5	 2.3	 0.0	 0.0	 0.0	 0.0	 0.0	 0.0	 0.0	 0.0	 0.0	 0.0	 0.0; % NG
	749	 5.1	 0.0	 5.0	 -5.0	 0.952	 100.0	 0	 8.5	 1.7	 0.0	 0.0	 0.0	 0.0	 0.0	 0.0	 0.0	 0.0	 0.0	 0.0	 0.0; % NG
	1188	 12.0	 1.95	 2.0	 1.9	 1.09	 100.0	 1	 20.0	 4.0	 0.0	 0.0	 0.0	 0.0	 0.0	 0.0	 0.0	 0.0	 0.0	 0.0	 0.0; % PEL
	1254	 14.4	 0.0	 7.0	 -7.0	 1.057	 100.0	 1	 24.0	 4.8	 0.0	 0.0	 0.0	 0.0	 0.0	 0.0	 0.0	 0.0	 0.0	 0.0	 0.0; % PEL
	252	 6.6	 1.5	 8.0	 -5.0	 0.952	 100.0	 1	 11.0	 2.2	 0.0	 0.0	 0.0	 0.0	 0.0	 0.0	 0.0	 0.0	 0.0	 0.0	 0.0; % NG
	252	 5.4	 0.5	 6.0	 -5.0	 0.952	 100.0	 1	 9.0	 1.8	 0.0	 0.0	 0.0	 0.0	 0.0	 0.0	 0.0	 0.0	 0.0	 0.0	 0.0; % NG
	252	 6.6	 1.5	 8.0	 -5.0	 0.952	 100.0	 1	 11.0	 2.2	 0.0	 0.0	 0.0	 0.0	 0.0	 0.0	 0.0	 0.0	 0.0	 0.0	 0.0; % NG
	252	 5.4	 0.5	 6.0	 -5.0	 0.952	 100.0	 1	 9.0	 1.8	 0.0	 0.0	 0.0	 0.0	 0.0	 0.0	 0.0	 0.0	 0.0	 0.0	 0.0; % NG
	504	 7.44	 0.0	 6.5	 -6.5	 0.958	 100.0	 1	 12.4	 2.48	 0.0	 0.0	 0.0	 0.0	 0.0	 0.0	 0.0	 0.0	 0.0	 0.0	 0.0; % NG
	115	 15.18	 0.0	 0.0	 0.0	 1.07	 100.0	 1	 25.3	 5.06	 0.0	 0.0	 0.0	 0.0	 0.0	 0.0	 0.0	 0.0	 0.0	 0.0	 0.0; % NG
	967	 1.15	 0.0	 0.0	 0.0	 1.071	 100.0	 1	 2.3	 0.0	 0.0	 0.0	 0.0	 0.0	 0.0	 0.0	 0.0	 0.0	 0.0	 0.0	 0.0; % PEL
	1811	 5.4	 0.0	 5.5	 -5.5	 1.047	 100.0	 1	 9.0	 1.8	 0.0	 0.0	 0.0	 0.0	 0.0	 0.0	 0.0	 0.0	 0.0	 0.0	 0.0; % NG
	2634	 8.4	 0.0	 7.0	 -7.0	 1.061	 100.0	 1	 14.0	 2.8	 0.0	 0.0	 0.0	 0.0	 0.0	 0.0	 0.0	 0.0	 0.0	 0.0	 0.0; % COW
	326	 8.4	 0.0	 7.0	 -7.0	 1.059	 100.0	 1	 14.0	 2.8	 0.0	 0.0	 0.0	 0.0	 0.0	 0.0	 0.0	 0.0	 0.0	 0.0	 0.0; % PEL
	1829	 7.68	 0.0	 7.7	 -7.7	 1.033	 100.0	 1	 12.8	 2.56	 0.0	 0.0	 0.0	 0.0	 0.0	 0.0	 0.0	 0.0	 0.0	 0.0	 0.0; % PEL
	1314	 23.4	 0.0	 19.0	 -19.0	 1.098	 100.0	 1	 39.0	 7.8	 0.0	 0.0	 0.0	 0.0	 0.0	 0.0	 0.0	 0.0	 0.0	 0.0	 0.0; % NG
	71	 18.0	 3.0	 10.0	 -4.0	 1.091	 100.0	 1	 30.0	 6.0	 0.0	 0.0	 0.0	 0.0	 0.0	 0.0	 0.0	 0.0	 0.0	 0.0	 0.0; % PEL
	93	 3.6	 1.95	 2.0	 1.9	 1.09	 100.0	 0	 6.0	 1.2	 0.0	 0.0	 0.0	 0.0	 0.0	 0.0	 0.0	 0.0	 0.0	 0.0	 0.0; % NG
	129	 6.6	 0.0	 4.0	 -4.0	 1.037	 100.0	 1	 11.0	 2.2	 0.0	 0.0	 0.0	 0.0	 0.0	 0.0	 0.0	 0.0	 0.0	 0.0	 0.0; % COW
	1594	 7.2	 0.0	 5.0	 -5.0	 1.015	 100.0	 1	 12.0	 2.4	 0.0	 0.0	 0.0	 0.0	 0.0	 0.0	 0.0	 0.0	 0.0	 0.0	 0.0; % NG
	1594	 7.2	 0.0	 5.0	 -5.0	 1.015	 100.0	 1	 12.0	 2.4	 0.0	 0.0	 0.0	 0.0	 0.0	 0.0	 0.0	 0.0	 0.0	 0.0	 0.0; % NG
	1354	 2.5	 0.0	 2.0	 -2.0	 1.009	 100.0	 1	 5.0	 0.0	 0.0	 0.0	 0.0	 0.0	 0.0	 0.0	 0.0	 0.0	 0.0	 0.0	 0.0; % NG
	1133	 10.35	 0.0	 0.0	 0.0	 1.006	 100.0	 1	 17.25	 3.45	 0.0	 0.0	 0.0	 0.0	 0.0	 0.0	 0.0	 0.0	 0.0	 0.0	 0.0; % NG
	1405	 22.68	 2.0	 12.0	 -8.0	 1.033	 100.0	 1	 37.8	 7.56	 0.0	 0.0	 0.0	 0.0	 0.0	 0.0	 0.0	 0.0	 0.0	 0.0	 0.0; % NG
	2850	 22.68	 2.0	 12.0	 -8.0	 1.033	 100.0	 1	 37.8	 7.56	 0.0	 0.0	 0.0	 0.0	 0.0	 0.0	 0.0	 0.0	 0.0	 0.0	 0.0; % NG
	2849	 22.68	 2.0	 12.0	 -8.0	 1.033	 100.0	 1	 37.8	 7.56	 0.0	 0.0	 0.0	 0.0	 0.0	 0.0	 0.0	 0.0	 0.0	 0.0	 0.0; % NG
	1122	 4.14	 0.0	 0.0	 0.0	 1.037	 100.0	 1	 6.9	 1.38	 0.0	 0.0	 0.0	 0.0	 0.0	 0.0	 0.0	 0.0	 0.0	 0.0	 0.0; % NG
	1708	 44.5	 9.0	 27.0	 -9.0	 1.03	 100.0	 1	 45.0	 44.0	 0.0	 0.0	 0.0	 0.0	 0.0	 0.0	 0.0	 0.0	 0.0	 0.0	 0.0; % NG
	1708	 44.5	 9.0	 27.0	 -9.0	 1.03	 100.0	 1	 45.0	 44.0	 0.0	 0.0	 0.0	 0.0	 0.0	 0.0	 0.0	 0.0	 0.0	 0.0	 0.0; % NG
	1658	 17.94	 0.0	 0.0	 0.0	 1.035	 100.0	 1	 29.9	 5.98	 0.0	 0.0	 0.0	 0.0	 0.0	 0.0	 0.0	 0.0	 0.0	 0.0	 0.0; % NG
	2884	 8.22	 0.0	 0.0	 0.0	 1.025	 100.0	 1	 13.7	 2.74	 0.0	 0.0	 0.0	 0.0	 0.0	 0.0	 0.0	 0.0	 0.0	 0.0	 0.0; % NG
	1154	 12.48	 0.0	 0.0	 0.0	 1.061	 100.0	 1	 20.8	 4.16	 0.0	 0.0	 0.0	 0.0	 0.0	 0.0	 0.0	 0.0	 0.0	 0.0	 0.0; % NG
	231	 4.98	 0.0	 8.3	 -8.3	 1.04	 100.0	 1	 8.3	 1.66	 0.0	 0.0	 0.0	 0.0	 0.0	 0.0	 0.0	 0.0	 0.0	 0.0	 0.0; % COW
	2887	 14.22	 2.0	 7.0	 -3.0	 1.024	 100.0	 1	 23.7	 4.74	 0.0	 0.0	 0.0	 0.0	 0.0	 0.0	 0.0	 0.0	 0.0	 0.0	 0.0; % PEL
	2888	 14.22	 2.0	 7.0	 -3.0	 1.024	 100.0	 1	 23.7	 4.74	 0.0	 0.0	 0.0	 0.0	 0.0	 0.0	 0.0	 0.0	 0.0	 0.0	 0.0; % NG
	1666	 14.22	 2.0	 7.0	 -3.0	 1.024	 100.0	 1	 23.7	 4.74	 0.0	 0.0	 0.0	 0.0	 0.0	 0.0	 0.0	 0.0	 0.0	 0.0	 0.0; % PEL
	499	 10.2	 0.95	 1.0	 0.9	 1.084	 100.0	 1	 17.0	 3.4	 0.0	 0.0	 0.0	 0.0	 0.0	 0.0	 0.0	 0.0	 0.0	 0.0	 0.0; % NG
	499	 4.2	 0.95	 1.0	 0.9	 1.084	 100.0	 1	 7.0	 1.4	 0.0	 0.0	 0.0	 0.0	 0.0	 0.0	 0.0	 0.0	 0.0	 0.0	 0.0; % COW
	499	 10.2	 0.95	 1.0	 0.9	 1.084	 100.0	 1	 17.0	 3.4	 0.0	 0.0	 0.0	 0.0	 0.0	 0.0	 0.0	 0.0	 0.0	 0.0	 0.0; % NG
	2709	 14.4	 0.0	 4.0	 -4.0	 1.021	 100.0	 1	 24.0	 4.8	 0.0	 0.0	 0.0	 0.0	 0.0	 0.0	 0.0	 0.0	 0.0	 0.0	 0.0; % PEL
	709	 14.4	 0.0	 4.0	 -4.0	 1.021	 100.0	 1	 24.0	 4.8	 0.0	 0.0	 0.0	 0.0	 0.0	 0.0	 0.0	 0.0	 0.0	 0.0	 0.0; % PEL
	2710	 14.4	 0.0	 4.0	 -4.0	 1.021	 100.0	 1	 24.0	 4.8	 0.0	 0.0	 0.0	 0.0	 0.0	 0.0	 0.0	 0.0	 0.0	 0.0	 0.0; % PEL
	2708	 14.4	 0.0	 4.0	 -4.0	 1.021	 100.0	 1	 24.0	 4.8	 0.0	 0.0	 0.0	 0.0	 0.0	 0.0	 0.0	 0.0	 0.0	 0.0	 0.0; % NG
	1280	 10.8	 0.0	 0.0	 0.0	 1.044	 100.0	 1	 18.0	 3.6	 0.0	 0.0	 0.0	 0.0	 0.0	 0.0	 0.0	 0.0	 0.0	 0.0	 0.0; % PEL
	1493	 10.8	 0.0	 11.0	 -11.0	 0.951	 100.0	 0	 18.0	 3.6	 0.0	 0.0	 0.0	 0.0	 0.0	 0.0	 0.0	 0.0	 0.0	 0.0	 0.0; % PEL
	745	 17.4	 -5.0	 8.0	 -18.0	 0.984	 100.0	 1	 29.0	 5.8	 0.0	 0.0	 0.0	 0.0	 0.0	 0.0	 0.0	 0.0	 0.0	 0.0	 0.0; % NG
	2727	 17.4	 -6.5	 5.0	 -18.0	 0.991	 100.0	 1	 29.0	 5.8	 0.0	 0.0	 0.0	 0.0	 0.0	 0.0	 0.0	 0.0	 0.0	 0.0	 0.0; % PEL
	1445	 33.0	 0.0	 0.0	 0.0	 1.064	 100.0	 1	 55.0	 11.0	 0.0	 0.0	 0.0	 0.0	 0.0	 0.0	 0.0	 0.0	 0.0	 0.0	 0.0; % NG
	316	 2.5	 0.95	 1.0	 0.9	 1.109	 100.0	 1	 5.0	 0.0	 0.0	 0.0	 0.0	 0.0	 0.0	 0.0	 0.0	 0.0	 0.0	 0.0	 0.0; % NG
	316	 5.88	 -0.145	 3.14	 -3.43	 1.109	 100.0	 1	 9.8	 1.96	 0.0	 0.0	 0.0	 0.0	 0.0	 0.0	 0.0	 0.0	 0.0	 0.0	 0.0; % NG
	564	 6.0	 0.0	 0.0	 0.0	 1.035	 100.0	 1	 10.0	 2.0	 0.0	 0.0	 0.0	 0.0	 0.0	 0.0	 0.0	 0.0	 0.0	 0.0	 0.0; % NG
	1047	 7.2	 0.0	 0.0	 0.0	 1.022	 100.0	 1	 12.0	 2.4	 0.0	 0.0	 0.0	 0.0	 0.0	 0.0	 0.0	 0.0	 0.0	 0.0	 0.0; % NG
	1047	 1.0	 0.0	 0.0	 0.0	 1.022	 100.0	 1	 2.0	 0.0	 0.0	 0.0	 0.0	 0.0	 0.0	 0.0	 0.0	 0.0	 0.0	 0.0	 0.0; % PEL
	1335	 1.0	 1.0	 3.0	 -1.0	 1.046	 100.0	 1	 2.0	 0.0	 0.0	 0.0	 0.0	 0.0	 0.0	 0.0	 0.0	 0.0	 0.0	 0.0	 0.0; % PEL
	2624	 18.6	 -1.0	 15.0	 -17.0	 1.051	 100.0	 1	 31.0	 6.2	 0.0	 0.0	 0.0	 0.0	 0.0	 0.0	 0.0	 0.0	 0.0	 0.0	 0.0; % NG
	298	 18.6	 -1.0	 15.0	 -17.0	 1.05	 100.0	 1	 31.0	 6.2	 0.0	 0.0	 0.0	 0.0	 0.0	 0.0	 0.0	 0.0	 0.0	 0.0	 0.0; % NG
	298	 18.6	 -1.0	 15.0	 -17.0	 1.05	 100.0	 1	 31.0	 6.2	 0.0	 0.0	 0.0	 0.0	 0.0	 0.0	 0.0	 0.0	 0.0	 0.0	 0.0; % PEL
	2625	 18.6	 -1.0	 15.0	 -17.0	 1.05	 100.0	 1	 31.0	 6.2	 0.0	 0.0	 0.0	 0.0	 0.0	 0.0	 0.0	 0.0	 0.0	 0.0	 0.0; % PEL
	2625	 18.6	 -1.0	 15.0	 -17.0	 1.05	 100.0	 1	 31.0	 6.2	 0.0	 0.0	 0.0	 0.0	 0.0	 0.0	 0.0	 0.0	 0.0	 0.0	 0.0; % PEL
	2624	 18.6	 -1.0	 15.0	 -17.0	 1.051	 100.0	 1	 31.0	 6.2	 0.0	 0.0	 0.0	 0.0	 0.0	 0.0	 0.0	 0.0	 0.0	 0.0	 0.0; % NG
	2721	 14.4	 -0.005	 0.0	 -0.01	 1.03	 100.0	 1	 24.0	 4.8	 0.0	 0.0	 0.0	 0.0	 0.0	 0.0	 0.0	 0.0	 0.0	 0.0	 0.0; % PEL
	2718	 14.4	 0.5	 8.0	 -7.0	 1.03	 100.0	 1	 24.0	 4.8	 0.0	 0.0	 0.0	 0.0	 0.0	 0.0	 0.0	 0.0	 0.0	 0.0	 0.0; % COW
	741	 14.4	 0.5	 8.0	 -7.0	 1.03	 100.0	 1	 24.0	 4.8	 0.0	 0.0	 0.0	 0.0	 0.0	 0.0	 0.0	 0.0	 0.0	 0.0	 0.0; % COW
	2719	 14.4	 0.5	 8.0	 -7.0	 1.03	 100.0	 1	 24.0	 4.8	 0.0	 0.0	 0.0	 0.0	 0.0	 0.0	 0.0	 0.0	 0.0	 0.0	 0.0; % PEL
	2720	 14.4	 0.5	 8.0	 -7.0	 1.03	 100.0	 1	 24.0	 4.8	 0.0	 0.0	 0.0	 0.0	 0.0	 0.0	 0.0	 0.0	 0.0	 0.0	 0.0; % NG
	283	 14.1	 0.0	 8.0	 -8.0	 1.074	 100.0	 1	 23.5	 4.7	 0.0	 0.0	 0.0	 0.0	 0.0	 0.0	 0.0	 0.0	 0.0	 0.0	 0.0; % COW
	1506	 16.2	 -2.5	 6.0	 -11.0	 1.037	 100.0	 1	 27.0	 5.4	 0.0	 0.0	 0.0	 0.0	 0.0	 0.0	 0.0	 0.0	 0.0	 0.0	 0.0; % NG
	1506	 16.2	 -2.5	 6.0	 -11.0	 1.037	 100.0	 1	 27.0	 5.4	 0.0	 0.0	 0.0	 0.0	 0.0	 0.0	 0.0	 0.0	 0.0	 0.0	 0.0; % NG
	1847	 19.2	 2.0	 12.0	 -8.0	 1.033	 100.0	 1	 32.0	 6.4	 0.0	 0.0	 0.0	 0.0	 0.0	 0.0	 0.0	 0.0	 0.0	 0.0	 0.0; % COW
	1398	 12.01	 0.0	 0.0	 0.0	 1.018	 100.0	 1	 20.02	 4.0	 0.0	 0.0	 0.0	 0.0	 0.0	 0.0	 0.0	 0.0	 0.0	 0.0	 0.0; % PEL
	1398	 12.21	 0.0	 0.0	 0.0	 1.018	 100.0	 1	 20.35	 4.07	 0.0	 0.0	 0.0	 0.0	 0.0	 0.0	 0.0	 0.0	 0.0	 0.0	 0.0; % PEL
	225	 27.0	 0.0	 45.0	 -45.0	 1.046	 100.0	 1	 45.0	 9.0	 0.0	 0.0	 0.0	 0.0	 0.0	 0.0	 0.0	 0.0	 0.0	 0.0	 0.0; % NG
	225	 27.0	 0.0	 45.0	 -45.0	 1.046	 100.0	 1	 45.0	 9.0	 0.0	 0.0	 0.0	 0.0	 0.0	 0.0	 0.0	 0.0	 0.0	 0.0	 0.0; % NG
	1607	 0.87	 0.0	 0.0	 0.0	 1.032	 100.0	 1	 1.74	 0.0	 0.0	 0.0	 0.0	 0.0	 0.0	 0.0	 0.0	 0.0	 0.0	 0.0	 0.0; % NG
	314	 12.0	 0.0	 10.0	 -10.0	 0.962	 100.0	 1	 20.0	 4.0	 0.0	 0.0	 0.0	 0.0	 0.0	 0.0	 0.0	 0.0	 0.0	 0.0	 0.0; % PEL
	2680	 141.5	 20.0	 100.0	 -60.0	 1.094	 100.0	 1	 239.0	 44.0	 0.0	 0.0	 0.0	 0.0	 0.0	 0.0	 0.0	 0.0	 0.0	 0.0	 0.0; % NG
	582	 125.5	 12.5	 70.0	 -45.0	 0.957	 100.0	 1	 169.0	 82.0	 0.0	 0.0	 0.0	 0.0	 0.0	 0.0	 0.0	 0.0	 0.0	 0.0	 0.0; % COW
	2978	 125.5	 12.5	 70.0	 -45.0	 0.957	 100.0	 1	 169.0	 82.0	 0.0	 0.0	 0.0	 0.0	 0.0	 0.0	 0.0	 0.0	 0.0	 0.0	 0.0; % COW
	2977	 141.5	 20.0	 100.0	 -60.0	 1.094	 100.0	 1	 239.0	 44.0	 0.0	 0.0	 0.0	 0.0	 0.0	 0.0	 0.0	 0.0	 0.0	 0.0	 0.0; % NG
	240	 143.4	 2.5	 80.0	 -75.0	 1.073	 100.0	 1	 239.0	 47.8	 0.0	 0.0	 0.0	 0.0	 0.0	 0.0	 0.0	 0.0	 0.0	 0.0	 0.0; % NG
	1655	 7.2	 0.0	 0.0	 0.0	 0.973	 100.0	 1	 12.0	 2.4	 0.0	 0.0	 0.0	 0.0	 0.0	 0.0	 0.0	 0.0	 0.0	 0.0	 0.0; % NG
	1655	 2.0	 0.0	 0.0	 0.0	 0.973	 100.0	 1	 4.0	 0.0	 0.0	 0.0	 0.0	 0.0	 0.0	 0.0	 0.0	 0.0	 0.0	 0.0	 0.0; % PEL
	1150	 32.4	 0.0	 0.0	 0.0	 1.058	 100.0	 1	 54.0	 10.8	 0.0	 0.0	 0.0	 0.0	 0.0	 0.0	 0.0	 0.0	 0.0	 0.0	 0.0; % PEL
	1447	 4.2	 -0.5	 2.0	 -3.0	 1.063	 100.0	 1	 7.0	 1.4	 0.0	 0.0	 0.0	 0.0	 0.0	 0.0	 0.0	 0.0	 0.0	 0.0	 0.0; % PEL
	906	 12.6	 0.0	 8.0	 -8.0	 1.065	 100.0	 0	 21.0	 4.2	 0.0	 0.0	 0.0	 0.0	 0.0	 0.0	 0.0	 0.0	 0.0	 0.0	 0.0; % PEL
	1474	 1.0	 0.0	 1.0	 -1.0	 1.023	 100.0	 0	 2.0	 0.0	 0.0	 0.0	 0.0	 0.0	 0.0	 0.0	 0.0	 0.0	 0.0	 0.0	 0.0; % PEL
	1474	 4.8	 0.0	 3.0	 -3.0	 1.023	 100.0	 1	 8.0	 1.6	 0.0	 0.0	 0.0	 0.0	 0.0	 0.0	 0.0	 0.0	 0.0	 0.0	 0.0; % NG
	1474	 4.8	 0.0	 3.0	 -3.0	 1.023	 100.0	 1	 8.0	 1.6	 0.0	 0.0	 0.0	 0.0	 0.0	 0.0	 0.0	 0.0	 0.0	 0.0	 0.0; % COW
	963	 5.34	 -0.5	 1.0	 -2.0	 1.0	 100.0	 1	 8.9	 1.78	 0.0	 0.0	 0.0	 0.0	 0.0	 0.0	 0.0	 0.0	 0.0	 0.0	 0.0; % NG
	962	 13.2	 0.0	 0.0	 0.0	 1.038	 100.0	 1	 22.0	 4.4	 0.0	 0.0	 0.0	 0.0	 0.0	 0.0	 0.0	 0.0	 0.0	 0.0	 0.0; % PEL
	923	 7.2	 0.0	 5.0	 -5.0	 1.04	 100.0	 1	 12.0	 2.4	 0.0	 0.0	 0.0	 0.0	 0.0	 0.0	 0.0	 0.0	 0.0	 0.0	 0.0; % COW
	1153	 9.6	 0.0	 17.3	 -17.3	 1.045	 100.0	 1	 16.0	 3.2	 0.0	 0.0	 0.0	 0.0	 0.0	 0.0	 0.0	 0.0	 0.0	 0.0	 0.0; % PEL
	1153	 10.08	 0.0	 10.0	 -10.0	 1.045	 100.0	 1	 16.8	 3.36	 0.0	 0.0	 0.0	 0.0	 0.0	 0.0	 0.0	 0.0	 0.0	 0.0	 0.0; % PEL
	274	 4.02	 0.0	 3.7	 -3.7	 1.033	 100.0	 1	 6.7	 1.34	 0.0	 0.0	 0.0	 0.0	 0.0	 0.0	 0.0	 0.0	 0.0	 0.0	 0.0; % NG
	274	 3.36	 0.0	 3.0	 -3.0	 1.033	 100.0	 1	 5.6	 1.12	 0.0	 0.0	 0.0	 0.0	 0.0	 0.0	 0.0	 0.0	 0.0	 0.0	 0.0; % PEL
	1776	 6.0	 0.0	 5.0	 -5.0	 1.033	 100.0	 1	 10.0	 2.0	 0.0	 0.0	 0.0	 0.0	 0.0	 0.0	 0.0	 0.0	 0.0	 0.0	 0.0; % NG
	1776	 6.0	 0.0	 5.0	 -5.0	 1.033	 100.0	 1	 10.0	 2.0	 0.0	 0.0	 0.0	 0.0	 0.0	 0.0	 0.0	 0.0	 0.0	 0.0	 0.0; % NG
	2914	 6.0	 0.0	 5.0	 -5.0	 1.033	 100.0	 1	 10.0	 2.0	 0.0	 0.0	 0.0	 0.0	 0.0	 0.0	 0.0	 0.0	 0.0	 0.0	 0.0; % NG
	2914	 6.0	 0.0	 5.0	 -5.0	 1.033	 100.0	 1	 10.0	 2.0	 0.0	 0.0	 0.0	 0.0	 0.0	 0.0	 0.0	 0.0	 0.0	 0.0	 0.0; % NG
	184	 14.04	 -4.5	 8.0	 -17.0	 1.067	 100.0	 0	 23.4	 4.68	 0.0	 0.0	 0.0	 0.0	 0.0	 0.0	 0.0	 0.0	 0.0	 0.0	 0.0; % PEL
	1657	 15.6	 -0.5	 16.0	 -17.0	 1.014	 100.0	 1	 26.0	 5.2	 0.0	 0.0	 0.0	 0.0	 0.0	 0.0	 0.0	 0.0	 0.0	 0.0	 0.0; % NG
	1657	 15.6	 -0.5	 16.0	 -17.0	 1.014	 100.0	 1	 26.0	 5.2	 0.0	 0.0	 0.0	 0.0	 0.0	 0.0	 0.0	 0.0	 0.0	 0.0	 0.0; % NG
	1761	 1.25	 0.0	 0.1	 -0.1	 1.091	 100.0	 1	 2.5	 0.0	 0.0	 0.0	 0.0	 0.0	 0.0	 0.0	 0.0	 0.0	 0.0	 0.0	 0.0; % PEL
	1761	 6.6	 0.95	 1.0	 0.9	 1.091	 100.0	 0	 11.0	 2.2	 0.0	 0.0	 0.0	 0.0	 0.0	 0.0	 0.0	 0.0	 0.0	 0.0	 0.0; % NG
	1868	 18.0	 0.0	 18.0	 -18.0	 1.04	 100.0	 1	 30.0	 6.0	 0.0	 0.0	 0.0	 0.0	 0.0	 0.0	 0.0	 0.0	 0.0	 0.0	 0.0; % PEL
	1868	 18.0	 0.0	 18.0	 -18.0	 1.04	 100.0	 1	 30.0	 6.0	 0.0	 0.0	 0.0	 0.0	 0.0	 0.0	 0.0	 0.0	 0.0	 0.0	 0.0; % PEL
	731	 25.8	 0.0	 26.0	 -26.0	 1.038	 100.0	 0	 43.0	 8.6	 0.0	 0.0	 0.0	 0.0	 0.0	 0.0	 0.0	 0.0	 0.0	 0.0	 0.0; % NG
	2715	 22.8	 0.0	 20.0	 -20.0	 1.036	 100.0	 0	 38.0	 7.6	 0.0	 0.0	 0.0	 0.0	 0.0	 0.0	 0.0	 0.0	 0.0	 0.0	 0.0; % COW
	1263	 13.86	 0.0	 14.0	 -14.0	 1.018	 100.0	 1	 23.1	 4.62	 0.0	 0.0	 0.0	 0.0	 0.0	 0.0	 0.0	 0.0	 0.0	 0.0	 0.0; % NG
	1263	 13.86	 0.0	 14.0	 -14.0	 1.018	 100.0	 1	 23.1	 4.62	 0.0	 0.0	 0.0	 0.0	 0.0	 0.0	 0.0	 0.0	 0.0	 0.0	 0.0; % NG
	161	 10.8	 0.0	 5.0	 -5.0	 1.065	 100.0	 1	 18.0	 3.6	 0.0	 0.0	 0.0	 0.0	 0.0	 0.0	 0.0	 0.0	 0.0	 0.0	 0.0; % PEL
	604	 6.12	 0.0	 6.0	 -6.0	 1.027	 100.0	 1	 10.2	 2.04	 0.0	 0.0	 0.0	 0.0	 0.0	 0.0	 0.0	 0.0	 0.0	 0.0	 0.0; % NG
	918	 15.6	 0.0	 0.0	 0.0	 1.051	 100.0	 1	 26.0	 5.2	 0.0	 0.0	 0.0	 0.0	 0.0	 0.0	 0.0	 0.0	 0.0	 0.0	 0.0; % PEL
	1760	 6.9	 0.0	 1.0	 -1.0	 1.039	 100.0	 1	 11.5	 2.3	 0.0	 0.0	 0.0	 0.0	 0.0	 0.0	 0.0	 0.0	 0.0	 0.0	 0.0; % NG
	1760	 6.9	 0.0	 1.0	 -1.0	 1.039	 100.0	 1	 11.5	 2.3	 0.0	 0.0	 0.0	 0.0	 0.0	 0.0	 0.0	 0.0	 0.0	 0.0	 0.0; % NG
	1414	 7.8	 0.0	 7.8	 -7.8	 1.036	 100.0	 1	 13.0	 2.6	 0.0	 0.0	 0.0	 0.0	 0.0	 0.0	 0.0	 0.0	 0.0	 0.0	 0.0; % NG
	1414	 7.2	 0.0	 7.2	 -7.2	 1.036	 100.0	 1	 12.0	 2.4	 0.0	 0.0	 0.0	 0.0	 0.0	 0.0	 0.0	 0.0	 0.0	 0.0	 0.0; % NG
	662	 24.0	 1.0	 20.0	 -18.0	 1.018	 100.0	 1	 40.0	 8.0	 0.0	 0.0	 0.0	 0.0	 0.0	 0.0	 0.0	 0.0	 0.0	 0.0	 0.0; % NG
	2697	 24.0	 1.0	 20.0	 -18.0	 1.018	 100.0	 1	 40.0	 8.0	 0.0	 0.0	 0.0	 0.0	 0.0	 0.0	 0.0	 0.0	 0.0	 0.0	 0.0; % COW
	2696	 24.0	 1.0	 20.0	 -18.0	 1.018	 100.0	 1	 40.0	 8.0	 0.0	 0.0	 0.0	 0.0	 0.0	 0.0	 0.0	 0.0	 0.0	 0.0	 0.0; % NG
	1346	 7.2	 0.0	 7.0	 -7.0	 1.028	 100.0	 1	 12.0	 2.4	 0.0	 0.0	 0.0	 0.0	 0.0	 0.0	 0.0	 0.0	 0.0	 0.0	 0.0; % COW
	1346	 7.2	 0.0	 7.0	 -7.0	 1.028	 100.0	 1	 12.0	 2.4	 0.0	 0.0	 0.0	 0.0	 0.0	 0.0	 0.0	 0.0	 0.0	 0.0	 0.0; % PEL
	2622	 4.8	 0.0	 26.0	 -26.0	 1.024	 100.0	 1	 8.0	 1.6	 0.0	 0.0	 0.0	 0.0	 0.0	 0.0	 0.0	 0.0	 0.0	 0.0	 0.0; % NG
	2622	 9.0	 0.0	 26.0	 -26.0	 1.024	 100.0	 1	 15.0	 3.0	 0.0	 0.0	 0.0	 0.0	 0.0	 0.0	 0.0	 0.0	 0.0	 0.0	 0.0; % NG
	291	 11.4	 0.0	 26.0	 -26.0	 1.03	 100.0	 1	 19.0	 3.8	 0.0	 0.0	 0.0	 0.0	 0.0	 0.0	 0.0	 0.0	 0.0	 0.0	 0.0; % NG
	1490	 6.36	 0.0	 6.5	 -6.5	 1.03	 100.0	 1	 10.6	 2.12	 0.0	 0.0	 0.0	 0.0	 0.0	 0.0	 0.0	 0.0	 0.0	 0.0	 0.0; % NG
	1671	 12.84	 0.0	 15.0	 -15.0	 1.036	 100.0	 1	 21.4	 4.28	 0.0	 0.0	 0.0	 0.0	 0.0	 0.0	 0.0	 0.0	 0.0	 0.0	 0.0; % NG
	1615	 23.4	 0.0	 24.0	 -24.0	 1.028	 100.0	 1	 39.0	 7.8	 0.0	 0.0	 0.0	 0.0	 0.0	 0.0	 0.0	 0.0	 0.0	 0.0	 0.0; % COW
	1681	 52.2	 0.87	 26.1	 -24.36	 1.049	 100.0	 1	 87.0	 17.4	 0.0	 0.0	 0.0	 0.0	 0.0	 0.0	 0.0	 0.0	 0.0	 0.0	 0.0; % NG
	418	 45.0	 5.0	 50.0	 -40.0	 1.061	 100.0	 1	 75.0	 15.0	 0.0	 0.0	 0.0	 0.0	 0.0	 0.0	 0.0	 0.0	 0.0	 0.0	 0.0; % PEL
	2658	 45.0	 5.0	 50.0	 -40.0	 1.061	 100.0	 1	 75.0	 15.0	 0.0	 0.0	 0.0	 0.0	 0.0	 0.0	 0.0	 0.0	 0.0	 0.0	 0.0; % PEL
	418	 45.0	 5.0	 50.0	 -40.0	 1.061	 100.0	 1	 75.0	 15.0	 0.0	 0.0	 0.0	 0.0	 0.0	 0.0	 0.0	 0.0	 0.0	 0.0	 0.0; % PEL
	2658	 45.0	 5.0	 50.0	 -40.0	 1.061	 100.0	 1	 75.0	 15.0	 0.0	 0.0	 0.0	 0.0	 0.0	 0.0	 0.0	 0.0	 0.0	 0.0	 0.0; % NG
	461	 24.84	 0.415	 12.42	 -11.59	 1.049	 100.0	 1	 41.4	 8.28	 0.0	 0.0	 0.0	 0.0	 0.0	 0.0	 0.0	 0.0	 0.0	 0.0	 0.0; % NG
	31	 4.01	 0.0	 0.0	 0.0	 1.049	 100.0	 1	 6.68	 1.34	 0.0	 0.0	 0.0	 0.0	 0.0	 0.0	 0.0	 0.0	 0.0	 0.0	 0.0; % NG
	236	 9.0	 3.5	 7.0	 0.0	 1.022	 100.0	 1	 15.0	 3.0	 0.0	 0.0	 0.0	 0.0	 0.0	 0.0	 0.0	 0.0	 0.0	 0.0	 0.0; % NG
	236	 9.0	 3.5	 7.0	 0.0	 1.022	 100.0	 1	 15.0	 3.0	 0.0	 0.0	 0.0	 0.0	 0.0	 0.0	 0.0	 0.0	 0.0	 0.0	 0.0; % NG
	1754	 0.5	 0.0	 1.0	 -1.0	 1.017	 100.0	 1	 1.0	 0.0	 0.0	 0.0	 0.0	 0.0	 0.0	 0.0	 0.0	 0.0	 0.0	 0.0	 0.0; % PEL
	1754	 0.5	 0.0	 1.0	 -1.0	 1.017	 100.0	 1	 1.0	 0.0	 0.0	 0.0	 0.0	 0.0	 0.0	 0.0	 0.0	 0.0	 0.0	 0.0	 0.0; % PEL
	1754	 0.5	 0.0	 1.0	 -1.0	 1.017	 100.0	 1	 1.0	 0.0	 0.0	 0.0	 0.0	 0.0	 0.0	 0.0	 0.0	 0.0	 0.0	 0.0	 0.0; % PEL
	898	 0.85	 0.0	 0.0	 0.0	 1.036	 100.0	 1	 1.7	 0.0	 0.0	 0.0	 0.0	 0.0	 0.0	 0.0	 0.0	 0.0	 0.0	 0.0	 0.0; % PEL
	898	 13.56	 0.0	 0.0	 0.0	 1.036	 100.0	 1	 22.6	 4.52	 0.0	 0.0	 0.0	 0.0	 0.0	 0.0	 0.0	 0.0	 0.0	 0.0	 0.0; % NG
	120	 9.0	 0.0	 9.0	 -9.0	 1.049	 100.0	 1	 15.0	 3.0	 0.0	 0.0	 0.0	 0.0	 0.0	 0.0	 0.0	 0.0	 0.0	 0.0	 0.0; % NG
	549	 27.5	 6.0	 22.0	 -10.0	 1.02	 100.0	 1	 50.0	 5.0	 0.0	 0.0	 0.0	 0.0	 0.0	 0.0	 0.0	 0.0	 0.0	 0.0	 0.0; % NG
	77	 14.1	 0.0	 0.0	 0.0	 1.026	 100.0	 1	 23.5	 4.7	 0.0	 0.0	 0.0	 0.0	 0.0	 0.0	 0.0	 0.0	 0.0	 0.0	 0.0; % PEL
	124	 -3.5	 0.0	 0.0	 0.0	 1.022	 100.0	 1	 0.0	 -7.0	 0.0	 0.0	 0.0	 0.0	 0.0	 0.0	 0.0	 0.0	 0.0	 0.0	 0.0; % SYNC
	124	 -3.5	 0.0	 0.0	 0.0	 1.022	 100.0	 1	 0.0	 -7.0	 0.0	 0.0	 0.0	 0.0	 0.0	 0.0	 0.0	 0.0	 0.0	 0.0	 0.0; % SYNC
	552	 12.6	 0.0	 0.0	 0.0	 1.018	 100.0	 1	 21.0	 4.2	 0.0	 0.0	 0.0	 0.0	 0.0	 0.0	 0.0	 0.0	 0.0	 0.0	 0.0; % COW
	1858	 5.76	 0.0	 6.0	 -6.0	 0.952	 100.0	 1	 9.6	 1.92	 0.0	 0.0	 0.0	 0.0	 0.0	 0.0	 0.0	 0.0	 0.0	 0.0	 0.0; % NG
	134	 15.0	 2.0	 13.0	 -9.0	 1.015	 100.0	 1	 25.0	 5.0	 0.0	 0.0	 0.0	 0.0	 0.0	 0.0	 0.0	 0.0	 0.0	 0.0	 0.0; % COW
	1204	 25.2	 2.5	 25.0	 -20.0	 0.964	 100.0	 1	 42.0	 8.4	 0.0	 0.0	 0.0	 0.0	 0.0	 0.0	 0.0	 0.0	 0.0	 0.0	 0.0; % NG
	1204	 25.2	 2.5	 25.0	 -20.0	 0.964	 100.0	 1	 42.0	 8.4	 0.0	 0.0	 0.0	 0.0	 0.0	 0.0	 0.0	 0.0	 0.0	 0.0	 0.0; % NG
...
];

%% generator cost data
%	2	startup	shutdown	n	c(n-1)	...	c0
mpc.gencost = [
	2	 0.0	 0.0	 3	   0.000000	 112.261070	   0.000000; % PEL
	2	 0.0	 0.0	 3	   0.000000	 162.325924	   0.000000; % PEL
	2	 0.0	 0.0	 3	   0.000000	  51.729841	   0.000000; % NG
	2	 0.0	 0.0	 3	   0.000000	  51.197543	   0.000000; % NG
	2	 0.0	 0.0	 3	   0.000000	  28.523884	   0.000000; % NG
	2	 0.0	 0.0	 3	   0.000000	  51.224941	   0.000000; % NG
	2	 0.0	 0.0	 3	   0.000000	 144.609604	   0.000000; % PEL
	2	 0.0	 0.0	 3	   0.000000	  33.748139	   0.000000; % COW
	2	 0.0	 0.0	 3	   0.000000	  43.593179	   0.000000; % NG
	2	 0.0	 0.0	 3	   0.000000	 107.876291	   0.000000; % PEL
	2	 0.0	 0.0	 3	   0.000000	  51.806040	   0.000000; % NG
	2	 0.0	 0.0	 3	   0.000000	 152.317128	   0.000000; % PEL
	2	 0.0	 0.0	 3	   0.000000	  44.737593	   0.000000; % NG
	2	 0.0	 0.0	 3	   0.000000	  38.157062	   0.000000; % NG
	2	 0.0	 0.0	 3	   0.000000	  49.211617	   0.000000; % NG
	2	 0.0	 0.0	 3	   0.000000	  46.034011	   0.000000; % NG
	2	 0.0	 0.0	 3	   0.000000	  29.860535	   0.000000; % COW
	2	 0.0	 0.0	 3	   0.000000	  46.625577	   0.000000; % NG
	2	 0.0	 0.0	 3	   0.000000	  38.196224	   0.000000; % NG
	2	 0.0	 0.0	 3	   0.000000	  37.873559	   0.000000; % NG
	2	 0.0	 0.0	 3	   0.000000	  44.879054	   0.000000; % NG
	2	 0.0	 0.0	 3	   0.000000	  55.401325	   0.000000; % NG
	2	 0.0	 0.0	 3	   0.000000	  53.806656	   0.000000; % NG
	2	 0.0	 0.0	 3	   0.000000	  30.461481	   0.000000; % NG
	2	 0.0	 0.0	 3	   0.000000	  43.429579	   0.000000; % NG
	2	 0.0	 0.0	 3	   0.000000	 122.594982	   0.000000; % PEL
	2	 0.0	 0.0	 3	   0.000000	  38.923396	   0.000000; % NG
	2	 0.0	 0.0	 3	   0.000000	 121.683524	   0.000000; % PEL
	2	 0.0	 0.0	 3	   0.000000	 129.985702	   0.000000; % PEL
	2	 0.0	 0.0	 3	   0.000000	 114.928813	   0.000000; % PEL
	2	 0.0	 0.0	 3	   0.000000	  36.582876	   0.000000; % NG
	2	 0.0	 0.0	 3	   0.000000	 127.083277	   0.000000; % PEL
	2	 0.0	 0.0	 3	   0.000000	 116.552775	   0.000000; % PEL
	2	 0.0	 0.0	 3	   0.000000	 138.510579	   0.000000; % PEL
	2	 0.0	 0.0	 3	   0.000000	  52.179723	   0.000000; % NG
	2	 0.0	 0.0	 3	   0.000000	  53.933820	   0.000000; % NG
	2	 0.0	 0.0	 3	   0.000000	  42.444135	   0.000000; % NG
	2	 0.0	 0.0	 3	   0.000000	  32.195945	   0.000000; % NG
	2	 0.0	 0.0	 3	   0.000000	  61.692066	   0.000000; % NG
	2	 0.0	 0.0	 3	   0.000000	  54.023899	   0.000000; % NG
	2	 0.0	 0.0	 3	   0.000000	  42.970115	   0.000000; % NG
	2	 0.0	 0.0	 3	   0.000000	  58.303399	   0.000000; % NG
	2	 0.0	 0.0	 3	   0.000000	 144.727119	   0.000000; % PEL
	2	 0.0	 0.0	 3	   0.000000	  40.222692	   0.000000; % NG
	2	 0.0	 0.0	 3	   0.000000	 140.131516	   0.000000; % PEL
	2	 0.0	 0.0	 3	   0.000000	  33.556350	   0.000000; % NG
	2	 0.0	 0.0	 3	   0.000000	  54.764463	   0.000000; % NG
	2	 0.0	 0.0	 3	   0.000000	 154.709051	   0.000000; % PEL
	2	 0.0	 0.0	 3	   0.000000	  49.679288	   0.000000; % NG
	2	 0.0	 0.0	 3	   0.000000	  43.554263	   0.000000; % NG
	2	 0.0	 0.0	 3	   0.000000	 124.849281	   0.000000; % PEL
	2	 0.0	 0.0	 3	   0.000000	 125.895047	   0.000000; % PEL
	2	 0.0	 0.0	 3	   0.000000	  41.468625	   0.000000; % NG
	2	 0.0	 0.0	 3	   0.000000	  38.170942	   0.000000; % NG
	2	 0.0	 0.0	 3	   0.000000	  47.595591	   0.000000; % NG
	2	 0.0	 0.0	 3	   0.000000	  25.158597	   0.000000; % NG
	2	 0.0	 0.0	 3	   0.000000	  47.205916	   0.000000; % NG
	2	 0.0	 0.0	 3	   0.000000	  53.631975	   0.000000; % NG
	2	 0.0	 0.0	 3	   0.000000	 158.288850	   0.000000; % PEL
	2	 0.0	 0.0	 3	   0.000000	  61.920060	   0.000000; % NG
	2	 0.0	 0.0	 3	   0.000000	  26.794451	   0.000000; % COW
	2	 0.0	 0.0	 3	   0.000000	 157.170027	   0.000000; % PEL
	2	 0.0	 0.0	 3	   0.000000	 113.771565	   0.000000; % PEL
	2	 0.0	 0.0	 3	   0.000000	  33.466710	   0.000000; % NG
	2	 0.0	 0.0	 3	   0.000000	 131.737157	   0.000000; % PEL
	2	 0.0	 0.0	 3	   0.000000	  49.077621	   0.000000; % NG
	2	 0.0	 0.0	 3	   0.000000	  41.044962	   0.000000; % COW
	2	 0.0	 0.0	 3	   0.000000	  41.107096	   0.000000; % NG
	2	 0.0	 0.0	 3	   0.000000	  56.887351	   0.000000; % NG
	2	 0.0	 0.0	 3	   0.000000	  43.973083	   0.000000; % NG
	2	 0.0	 0.0	 3	   0.000000	  26.848919	   0.000000; % NG
	2	 0.0	 0.0	 3	   0.000000	  32.841682	   0.000000; % NG
	2	 0.0	 0.0	 3	   0.000000	  33.470867	   0.000000; % NG
	2	 0.0	 0.0	 3	   0.000000	  55.561571	   0.000000; % NG
	2	 0.0	 0.0	 3	   0.000000	  42.034567	   0.000000; % NG
	2	 0.0	 0.0	 3	   0.000000	  26.332299	   0.000000; % NG
	2	 0.0	 0.0	 3	   0.000000	  39.879130	   0.000000; % NG
	2	 0.0	 0.0	 3	   0.000000	  50.955948	   0.000000; % NG
	2	 0.0	 0.0	 3	   0.000000	  35.351344	   0.000000; % NG
	2	 0.0	 0.0	 3	   0.000000	  49.715792	   0.000000; % NG
	2	 0.0	 0.0	 3	   0.000000	  30.255298	   0.000000; % COW
	2	 0.0	 0.0	 3	   0.000000	 109.563267	   0.000000; % PEL
	2	 0.0	 0.0	 3	   0.000000	  48.617713	   0.000000; % NG
	2	 0.0	 0.0	 3	   0.000000	 129.510960	   0.000000; % PEL
	2	 0.0	 0.0	 3	   0.000000	  48.392203	   0.000000; % NG
	2	 0.0	 0.0	 3	   0.000000	  38.139481	   0.000000; % COW
	2	 0.0	 0.0	 3	   0.000000	  46.525265	   0.000000; % NG
	2	 0.0	 0.0	 3	   0.000000	 154.754469	   0.000000; % PEL
	2	 0.0	 0.0	 3	   0.000000	 157.881801	   0.000000; % PEL
	2	 0.0	 0.0	 3	   0.000000	 113.697806	   0.000000; % PEL
	2	 0.0	 0.0	 3	   0.000000	  42.519669	   0.000000; % NG
	2	 0.0	 0.0	 3	   0.000000	 152.567207	   0.000000; % PEL
	2	 0.0	 0.0	 3	   0.000000	 116.400489	   0.000000; % PEL
	2	 0.0	 0.0	 3	   0.000000	  54.144689	   0.000000; % NG
	2	 0.0	 0.0	 3	   0.000000	 134.696912	   0.000000; % PEL
	2	 0.0	 0.0	 3	   0.000000	  50.050373	   0.000000; % NG
	2	 0.0	 0.0	 3	   0.000000	  41.146434	   0.000000; % NG
	2	 0.0	 0.0	 3	   0.000000	  54.506036	   0.000000; % NG
	2	 0.0	 0.0	 3	   0.000000	  51.688352	   0.000000; % NG
	2	 0.0	 0.0	 3	   0.000000	  28.962688	   0.000000; % NG
	2	 0.0	 0.0	 3	   0.000000	 124.263567	   0.000000; % PEL
	2	 0.0	 0.0	 3	   0.000000	 129.073588	   0.000000; % PEL
	2	 0.0	 0.0	 3	   0.000000	  58.855985	   0.000000; % NG
	2	 0.0	 0.0	 3	   0.000000	  71.746021	   0.000000; % NG
	2	 0.0	 0.0	 3	   0.000000	 139.836547	   0.000000; % PEL
	2	 0.0	 0.0	 3	   0.000000	 152.020538	   0.000000; % PEL
	2	 0.0	 0.0	 3	   0.000000	 152.338288	   0.000000; % PEL
	2	 0.0	 0.0	 3	   0.000000	  40.263732	   0.000000; % NG
	2	 0.0	 0.0	 3	   0.000000	 109.771180	   0.000000; % PEL
	2	 0.0	 0.0	 3	   0.000000	  21.829492	   0.000000; % COW
	2	 0.0	 0.0	 3	   0.000000	  21.266037	   0.000000; % COW
	2	 0.0	 0.0	 3	   0.000000	 130.879383	   0.000000; % PEL
	2	 0.0	 0.0	 3	   0.000000	  45.146928	   0.000000; % NG
	2	 0.0	 0.0	 3	   0.000000	  23.511898	   0.000000; % COW
	2	 0.0	 0.0	 3	   0.000000	  46.328922	   0.000000; % NG
	2	 0.0	 0.0	 3	   0.000000	  40.634819	   0.000000; % NG
	2	 0.0	 0.0	 3	   0.000000	  20.252687	   0.000000; % COW
	2	 0.0	 0.0	 3	   0.000000	  93.836651	   0.000000; % PEL
	2	 0.0	 0.0	 3	   0.000000	 130.361358	   0.000000; % PEL
	2	 0.0	 0.0	 3	   0.000000	  58.938065	   0.000000; % NG
	2	 0.0	 0.0	 3	   0.000000	  53.974847	   0.000000; % NG
	2	 0.0	 0.0	 3	   0.000000	  38.842716	   0.000000; % NG
	2	 0.0	 0.0	 3	   0.000000	 115.020103	   0.000000; % PEL
	2	 0.0	 0.0	 3	   0.000000	  41.087894	   0.000000; % NG
	2	 0.0	 0.0	 3	   0.000000	  30.841155	   0.000000; % COW
	2	 0.0	 0.0	 3	   0.000000	  36.464465	   0.000000; % COW
	2	 0.0	 0.0	 3	   0.000000	  60.305470	   0.000000; % NG
	2	 0.0	 0.0	 3	   0.000000	  45.755607	   0.000000; % NG
	2	 0.0	 0.0	 3	   0.000000	  45.713864	   0.000000; % NG
	2	 0.0	 0.0	 3	   0.000000	 103.968547	   0.000000; % PEL
	2	 0.0	 0.0	 3	   0.000000	 116.622601	   0.000000; % PEL
	2	 0.0	 0.0	 3	   0.000000	 127.663768	   0.000000; % PEL
	2	 0.0	 0.0	 3	   0.000000	 150.963629	   0.000000; % PEL
	2	 0.0	 0.0	 3	   0.000000	 159.654509	   0.000000; % PEL
	2	 0.0	 0.0	 3	   0.000000	  57.375571	   0.000000; % NG
	2	 0.0	 0.0	 3	   0.000000	  28.108230	   0.000000; % COW
	2	 0.0	 0.0	 3	   0.000000	  45.192523	   0.000000; % NG
	2	 0.0	 0.0	 3	   0.000000	 126.420538	   0.000000; % PEL
	2	 0.0	 0.0	 3	   0.000000	  26.786585	   0.000000; % COW
	2	 0.0	 0.0	 3	   0.000000	 146.852188	   0.000000; % PEL
	2	 0.0	 0.0	 3	   0.000000	 194.495356	   0.000000; % PEL
	2	 0.0	 0.0	 3	   0.000000	  36.931444	   0.000000; % NG
	2	 0.0	 0.0	 3	   0.000000	 142.762218	   0.000000; % PEL
	2	 0.0	 0.0	 3	   0.000000	  60.424921	   0.000000; % NG
	2	 0.0	 0.0	 3	   0.000000	  38.639726	   0.000000; % NG
	2	 0.0	 0.0	 3	   0.000000	  48.287187	   0.000000; % NG
	2	 0.0	 0.0	 3	   0.000000	  47.219936	   0.000000; % NG
	2	 0.0	 0.0	 3	   0.000000	 105.464737	   0.000000; % PEL
	2	 0.0	 0.0	 3	   0.000000	  27.736230	   0.000000; % NG
	2	 0.0	 0.0	 3	   0.000000	  36.170559	   0.000000; % NG
	2	 0.0	 0.0	 3	   0.000000	 137.058998	   0.000000; % PEL
	2	 0.0	 0.0	 3	   0.000000	  41.751962	   0.000000; % NG
	2	 0.0	 0.0	 3	   0.000000	 163.039092	   0.000000; % PEL
	2	 0.0	 0.0	 3	   0.000000	 161.721935	   0.000000; % PEL
	2	 0.0	 0.0	 3	   0.000000	  53.622595	   0.000000; % NG
	2	 0.0	 0.0	 3	   0.000000	  30.489010	   0.000000; % COW
	2	 0.0	 0.0	 3	   0.000000	  51.742906	   0.000000; % NG
	2	 0.0	 0.0	 3	   0.000000	  46.457367	   0.000000; % NG
	2	 0.0	 0.0	 3	   0.000000	 126.012068	   0.000000; % PEL
	2	 0.0	 0.0	 3	   0.000000	  42.081919	   0.000000; % NG
	2	 0.0	 0.0	 3	   0.000000	 137.941181	   0.000000; % PEL
	2	 0.0	 0.0	 3	   0.000000	  49.794595	   0.000000; % NG
	2	 0.0	 0.0	 3	   0.000000	  36.633466	   0.000000; % NG
	2	 0.0	 0.0	 3	   0.000000	  41.997692	   0.000000; % NG
	2	 0.0	 0.0	 3	   0.000000	  62.164904	   0.000000; % NG
	2	 0.0	 0.0	 3	   0.000000	  51.767618	   0.000000; % NG
	2	 0.0	 0.0	 3	   0.000000	  23.694694	   0.000000; % COW
	2	 0.0	 0.0	 3	   0.000000	  60.672703	   0.000000; % NG
	2	 0.0	 0.0	 3	   0.000000	  25.829769	   0.000000; % COW
	2	 0.0	 0.0	 3	   0.000000	 102.526286	   0.000000; % PEL
	2	 0.0	 0.0	 3	   0.000000	  34.621436	   0.000000; % NG
	2	 0.0	 0.0	 3	   0.000000	  72.179958	   0.000000; % NG
	2	 0.0	 0.0	 3	   0.000000	  21.866216	   0.000000; % NG
	2	 0.0	 0.0	 3	   0.000000	  33.801466	   0.000000; % NG
	2	 0.0	 0.0	 3	   0.000000	  47.444481	   0.000000; % NG
	2	 0.0	 0.0	 3	   0.000000	  25.967662	   0.000000; % COW
	2	 0.0	 0.0	 3	   0.000000	  44.178729	   0.000000; % NG
	2	 0.0	 0.0	 3	   0.000000	 165.283280	   0.000000; % PEL
	2	 0.0	 0.0	 3	   0.000000	 157.252452	   0.000000; % PEL
	2	 0.0	 0.0	 3	   0.000000	 141.880308	   0.000000; % PEL
	2	 0.0	 0.0	 3	   0.000000	  53.889536	   0.000000; % NG
	2	 0.0	 0.0	 3	   0.000000	  52.480392	   0.000000; % NG
	2	 0.0	 0.0	 3	   0.000000	  41.327706	   0.000000; % NG
	2	 0.0	 0.0	 3	   0.000000	  33.479131	   0.000000; % NG
	2	 0.0	 0.0	 3	   0.000000	  35.430941	   0.000000; % NG
	2	 0.0	 0.0	 3	   0.000000	 128.391504	   0.000000; % PEL
	2	 0.0	 0.0	 3	   0.000000	 154.947959	   0.000000; % PEL
	2	 0.0	 0.0	 3	   0.000000	 108.387778	   0.000000; % PEL
	2	 0.0	 0.0	 3	   0.000000	 131.314833	   0.000000; % PEL
	2	 0.0	 0.0	 3	   0.000000	  56.454752	   0.000000; % NG
	2	 0.0	 0.0	 3	   0.000000	  50.685825	   0.000000; % NG
	2	 0.0	 0.0	 3	   0.000000	  58.688627	   0.000000; % NG
	2	 0.0	 0.0	 3	   0.000000	 119.867826	   0.000000; % PEL
	2	 0.0	 0.0	 3	   0.000000	   0.000000	   0.000000; % SYNC
	2	 0.0	 0.0	 3	   0.000000	   0.000000	   0.000000; % SYNC
	2	 0.0	 0.0	 3	   0.000000	  26.390692	   0.000000; % COW
	2	 0.0	 0.0	 3	   0.000000	  65.560055	   0.000000; % NG
	2	 0.0	 0.0	 3	   0.000000	  17.741969	   0.000000; % COW
	2	 0.0	 0.0	 3	   0.000000	  48.800846	   0.000000; % NG
	2	 0.0	 0.0	 3	   0.000000	  63.158575	   0.000000; % NG
...
];

%% branch data
%	fbus	tbus	r	x	b	rateA	rateB	rateC	ratio	angle	status	angmin	angmax
mpc.branch = [
	639	 1	 0.005799	 0.010615	 0.0075	 2441	 2441	 2441	 0.0	 0.0	 1	 -30.0	 30.0;
	2771	 2	 0.002607	 0.017462	 0.0324	 540.0	 540.0	 540.0	 0.0	 0.0	 1	 -30.0	 30.0;
	2575	 3	 2.1e-05	 0.000125	 0.1386	 737.0	 737.0	 737.0	 0.0	 0.0	 1	 -30.0	 30.0;
	875	 3	 0.000145	 0.001877	 0.0635	 2487.0	 2487.0	 2487.0	 0.0	 0.0	 1	 -30.0	 30.0;
	1710	 3	 0.000319	 0.003234	 0.0838	 1841.0	 1841.0	 1841.0	 0.0	 0.0	 1	 -30.0	 30.0;
	46	 3	 2.1e-05	 0.000125	 0.1386	 737.0	 737.0	 737.0	 0.0	 0.0	 1	 -30.0	 30.0;
	1073	 4	 0.037541	 0.100529	 0.0011	 284	 284	 284	 0.0	 0.0	 1	 -30.0	 30.0;
	1533	 4	 0.090199	 0.211388	 0.0023	 133	 133	 133	 0.0	 0.0	 1	 -30.0	 30.0;
	1658	 4	 0.09801	 0.267574	 0.0	 107	 107	 107	 0.0	 0.0	 1	 -30.0	 30.0;
	1370	 5	 0.009383	 0.019753	 0.0	 1194	 1194	 1194	 0.0	 0.0	 1	 -30.0	 30.0;
	1370	 6	 0.001975	 0.004444	 0.0	 5369	 5369	 5369	 0.0	 0.0	 1	 -30.0	 30.0;
	199	 7	 0.006163	 0.041067	 0.0759	 446.0	 446.0	 446.0	 0.0	 0.0	 1	 -30.0	 30.0;
	880	 7	 0.000652	 0.004369	 0.0081	 558.0	 558.0	 558.0	 0.0	 0.0	 1	 -30.0	 30.0;
	1061	 8	 0.067019	 0.137566	 0.0037	 193	 193	 193	 0.0	 0.0	 1	 -30.0	 30.0;
	1223	 8	 0.032754	 0.088939	 0.0039	 312	 312	 312	 0.0	 0.0	 1	 -30.0	 30.0;
	1223	 8	 0.030184	 0.080096	 0.0053	 345	 345	 345	 0.0	 0.0	 1	 -30.0	 30.0;
	1371	 10	 0.009733	 0.034089	 0.0185	 944	 944	 944	 0.0	 0.0	 1	 -30.0	 30.0;
	147	 11	 0.000277	 0.002015	 0.003	 288.0	 288.0	 288.0	 0.0	 0.0	 1	 -30.0	 30.0;
	387	 2571	 0.00881	 0.033995	 0.0607	 289.0	 289.0	 289.0	 0.0	 0.0	 1	 -30.0	 30.0;
	437	 2571	 0.004642	 0.019832	 0.0354	 255.0	 255.0	 255.0	 0.0	 0.0	 1	 -30.0	 30.0;
	955	 11	 0.008861	 0.03506	 0.0623	 288.0	 288.0	 288.0	 0.0	 0.0	 1	 -30.0	 30.0;
	991	 11	 0.006993	 0.032869	 0.0557	 255.0	 255.0	 255.0	 0.0	 0.0	 1	 -30.0	 30.0;
	1774	 2571	 0.002173	 0.008731	 0.0152	 3441	 3441	 3441	 0.0	 0.0	 1	 -30.0	 30.0;
	1817	 11	 0.00077	 0.003121	 0.0051	 9629	 9629	 9629	 0.0	 0.0	 1	 -30.0	 30.0;
	2092	 2571	 0.004109	 0.016138	 0.0284	 288.0	 288.0	 288.0	 0.0	 0.0	 1	 -30.0	 30.0;
	2591	 12	 8.3e-05	 0.000907	 0.0202	 1034.0	 1034.0	 1034.0	 0.0	 0.0	 1	 -30.0	 30.0;
	419	 12	 0.000552	 0.006726	 0.0939	 1786.0	 1786.0	 1786.0	 0.0	 0.0	 1	 -30.0	 30.0;
	808	 12	 0.000512	 0.008012	 0.2455	 2462.0	 2462.0	 2462.0	 0.0	 0.0	 1	 -30.0	 30.0;
	1158	 12	 0.001107	 0.00918	 0.1906	 1644.0	 1644.0	 1644.0	 0.0	 0.0	 1	 -30.0	 30.0;
	148	 2572	 6.2e-05	 0.000741	 0.0173	 1095.0	 1095.0	 1095.0	 0.0	 0.0	 1	 -30.0	 30.0;
	808	 12	 0.000512	 0.008019	 0.2455	 2462.0	 2462.0	 2462.0	 0.0	 0.0	 1	 -30.0	 30.0;
	808	 2572	 0.001153	 0.013123	 0.1841	 1433.0	 1433.0	 1433.0	 0.0	 0.0	 1	 -30.0	 30.0;
	167	 13	 0.000158	 0.000672	 0.0719	 331.0	 331.0	 331.0	 0.0	 0.0	 1	 -30.0	 30.0;
	1463	 13	 4.5e-05	 8.9e-05	 0.002	 268.0	 268.0	 268.0	 0.0	 0.0	 1	 -30.0	 30.0;
	820	 14	 0.033258	 0.090955	 0.001	 305	 305	 305	 0.0	 0.0	 1	 -30.0	 30.0;
	465	 15	 0.071303	 0.180902	 0.0021	 152	 152	 152	 0.0	 0.0	 1	 -30.0	 30.0;
	878	 15	 0.071554	 0.18191	 0.0021	 152	 152	 152	 0.0	 0.0	 1	 -30.0	 30.0;
	2664	 16	 0.00478	 0.028622	 0.0547	 455.0	 455.0	 455.0	 0.0	 0.0	 1	 -30.0	 30.0;
	451	 16	 0.00478	 0.028583	 0.0547	 455.0	 455.0	 455.0	 0.0	 0.0	 1	 -30.0	 30.0;
	151	 17	 0.000257	 0.000514	 0.0294	 53862	 53862	 53862	 0.0	 0.0	 1	 -30.0	 30.0;
	987	 18	 0.000257	 0.002153	 0.2147	 452.0	 452.0	 452.0	 0.0	 0.0	 1	 -30.0	 30.0;
	1264	 18	 0.000277	 0.000869	 0.0931	 481.0	 481.0	 481.0	 0.0	 0.0	 1	 -30.0	 30.0;
	1903	 19	 0.000756	 0.00252	 0.0	 11716	 11716	 11716	 0.0	 0.0	 1	 -30.0	 30.0;
	1247	 20	 0.000237	 0.00083	 0.1863	 268.0	 268.0	 268.0	 0.0	 0.0	 1	 -30.0	 30.0;
	1301	 20	 0.000178	 0.000612	 0.1377	 268.0	 268.0	 268.0	 0.0	 0.0	 1	 -30.0	 30.0;
	59	 21	 0.002568	 0.011753	 0.0203	 424.0	 424.0	 424.0	 0.0	 0.0	 1	 -30.0	 30.0;
	1908	 21	 0.002568	 0.011615	 0.0228	 290.0	 290.0	 290.0	 0.0	 0.0	 1	 -30.0	 30.0;
	591	 22	 0.102293	 0.226757	 0.0025	 122	 122	 122	 0.0	 0.0	 1	 -30.0	 30.0;
	855	 22	 0.177551	 0.405291	 0.0046	 68	 68	 68	 0.0	 0.0	 1	 -30.0	 30.0;
	1199	 22	 0.088264	 0.161566	 0.0017	 163	 163	 163	 0.0	 0.0	 1	 -30.0	 30.0;
	820	 23	 0.043336	 0.11867	 0.001	 234	 234	 234	 0.0	 0.0	 1	 -30.0	 30.0;
	1059	 23	 0.067775	 0.139834	 0.001	 191	 191	 191	 0.0	 0.0	 1	 -30.0	 30.0;
...